/*---------------------------------------------------------------------------*\
| =========                 |                                                 |
| \\      /  F ield         | OpenFOAM: The Open Source CFD Toolbox           |
|  \\    /   O peration     | Version:  2.4.0                                 |
|   \\  /    A nd           | Web:      www.OpenFOAM.org                      |
|    \\/     M anipulation  |                                                 |
\*---------------------------------------------------------------------------*/
Build  : 2.4.0-dcea1e13ff76
Exec   : solarRayTracingGen -region vegetation -parallel
Date   : Feb 23 2017
Time   : 18:38:30
Host   : "e1182"
PID    : 58445
Case   : /cluster/scratch/akubilay/test_vegi4_test
nProcs : 48
Slaves : 
47
(
"e1182.58446"
"e1182.58447"
"e1182.58448"
"e1182.58449"
"e1182.58450"
"e1182.58451"
"e1182.58452"
"e1182.58453"
"e1182.58454"
"e1182.58455"
"e1182.58456"
"e1182.58457"
"e1182.58458"
"e1182.58459"
"e1182.58460"
"e1182.58461"
"e1182.58462"
"e1182.58463"
"e1182.58464"
"e1182.58465"
"e1182.58466"
"e1182.58467"
"e1182.58468"
"e1401.35065"
"e1401.35066"
"e1401.35067"
"e1401.35068"
"e1401.35069"
"e1401.35070"
"e1401.35071"
"e1401.35072"
"e1401.35073"
"e1401.35074"
"e1401.35075"
"e1401.35076"
"e1401.35077"
"e1401.35078"
"e1401.35079"
"e1401.35080"
"e1401.35081"
"e1401.35082"
"e1401.35083"
"e1401.35084"
"e1401.35085"
"e1401.35086"
"e1401.35087"
"e1401.35088"
)

Pstream initialized with:
    floatTransfer      : 0
    nProcsSimpleSum    : 0
    commsType          : nonBlocking
    polling iterations : 0
sigFpe : Enabling floating point exception trapping (FOAM_SIGFPE).
fileModificationChecking : Monitoring run-time modified files using timeStampMaster
allowSystemOperations : Allowing user-supplied system call operations

// * * * * * * * * * * * * * * * * * * * * * * * * * * * * * * * * * * * * * //
Create time

--> FOAM Warning : 
    From function dlOpen(const fileName&, const bool)
    in file POSIX.C at line 1179
    dlopen error : /cluster/home/akubilay/OpenFOAM/akubilay-2.4.0/platforms/linux64GccDPOpt/lib/libporousCompressibleRASModels.so: undefined symbol: _ZTIN4Foam12compressible8RASModelE
--> FOAM Warning : 
    From function dlLibraryTable::open(const fileName&, const bool)
    in file db/dynamicLibrary/dlLibraryTable/dlLibraryTable.C at line 99
    could not load "libporousCompressibleRASModels.so"
Create mesh vegetation for time = 114600


Creating single cell mesh...
[13] 
Created single cell mesh...
[14] 
Created single cell mesh...
[15] 
Created single cell mesh...
[16] 
Created single cell mesh...
[17] 
Created single cell mesh...
[18] 
Created single cell mesh...
[19] 
Created single cell mesh...
[20] 
Created single cell mesh...
[21] 
Created single cell mesh...
[22] 
Created single cell mesh...
[23] 
Created single cell mesh...
[0] 
Created single cell mesh...
howManyCoarseFacesPerPatch: 
14
(
9
0
2
20
0
0
0
8
0
0
0
0
0
0
)

[1] 
Created single cell mesh...
[2] 
Created single cell mesh...
[3] 
Created single cell mesh...
[4] 
Created single cell mesh...
[5] 
Created single cell mesh...
[6] 
Created single cell mesh...
[7] 
Created single cell mesh...
[8] 
Created single cell mesh...
[9] 
Created single cell mesh...
[10] 
Created single cell mesh...
[11] 
Created single cell mesh...
[12] 
Created single cell mesh...
[47] 
Created single cell mesh...
[24] 
Created single cell mesh...
[25] 
Created single cell mesh...
[26] 
Created single cell mesh...
[27] 
Created single cell mesh...
[28] 
Created single cell mesh...
[29] 
Created single cell mesh...
[30] 
Created single cell mesh...
[31] 
Created single cell mesh...
[32] 
Created single cell mesh...
[33] 
Created single cell mesh...
[34] 
Created single cell mesh...
[35] 
Created single cell mesh...
[36] 
Created single cell mesh...
[37] 
Created single cell mesh...
[38] 
Created single cell mesh...
[39] 
Created single cell mesh...
[40] 
Created single cell mesh...
[41] 
Created single cell mesh...
[42] 
Created single cell mesh...
[43] 
Created single cell mesh...
[44] 
Created single cell mesh...
[45] 
Created single cell mesh...
[46] 
Created single cell mesh...

Total number of coarse faces: 3953
[0] 
View factor patches included in the calculation : 1(3)
start: 
20
(
(15.3797 0 18.2108)
(9.84281 0 52.531)
(6.87282 0 83.1702)
(15.3797 0 91.1057)
(26.2183 0 33.4328)
(20.1651 0 63.8907)
(20.1651 0 84.2729)
(27.8754 0 88.146)
(34.8726 0 49.2969)
(34.8726 0 70.6827)
(34.8726 0 77.7612)
(37.0123 0 12.6721)
(40.4597 0 41.8974)
(37.9369 0 58.5922)
(34.8726 0 91.7496)
(37.9369 0 84.2729)
(43.5508 0 81.9087)
(43.0349 0 90.4618)
(44.9584 0 74.4596)
(46.0622 0 18.2108)
)

end: 
20
(
(15.3797 0 18.2108)
(9.84281 0 52.531)
(6.87282 0 83.1702)
(15.3797 0 91.1057)
(26.2183 0 33.4328)
(20.1651 0 63.8907)
(20.1651 0 84.2729)
(27.8754 0 88.146)
(34.8726 0 49.2969)
(34.8726 0 70.6827)
(34.8726 0 77.7612)
(37.0123 0 12.6721)
(40.4597 0 41.8974)
(37.9369 0 58.5922)
(34.8726 0 91.7496)
(37.9369 0 84.2729)
(43.5508 0 81.9087)
(43.0349 0 90.4618)
(44.9584 0 74.4596)
(46.0622 0 18.2108)
)

start: 
20
(
(15.3797 0 18.2108)
(9.84281 0 52.531)
(6.87282 0 83.1702)
(15.3797 0 91.1057)
(26.2183 0 33.4328)
(20.1651 0 63.8907)
(20.1651 0 84.2729)
(27.8754 0 88.146)
(34.8726 0 49.2969)
(34.8726 0 70.6827)
(34.8726 0 77.7612)
(37.0123 0 12.6721)
(40.4597 0 41.8974)
(37.9369 0 58.5922)
(34.8726 0 91.7496)
(37.9369 0 84.2729)
(43.5508 0 81.9087)
(43.0349 0 90.4618)
(44.9584 0 74.4596)
(46.0622 0 18.2108)
)

end: 
20
(
(15.3797 0 18.2108)
(9.84281 0 52.531)
(6.87282 0 83.1702)
(15.3797 0 91.1057)
(26.2183 0 33.4328)
(20.1651 0 63.8907)
(20.1651 0 84.2729)
(27.8754 0 88.146)
(34.8726 0 49.2969)
(34.8726 0 70.6827)
(34.8726 0 77.7612)
(37.0123 0 12.6721)
(40.4597 0 41.8974)
(37.9369 0 58.5922)
(34.8726 0 91.7496)
(37.9369 0 84.2729)
(43.5508 0 81.9087)
(43.0349 0 90.4618)
(44.9584 0 74.4596)
(46.0622 0 18.2108)
)

start: 
20
(
(15.3797 0 18.2108)
(9.84281 0 52.531)
(6.87282 0 83.1702)
(15.3797 0 91.1057)
(26.2183 0 33.4328)
(20.1651 0 63.8907)
(20.1651 0 84.2729)
(27.8754 0 88.146)
(34.8726 0 49.2969)
(34.8726 0 70.6827)
(34.8726 0 77.7612)
(37.0123 0 12.6721)
(40.4597 0 41.8974)
(37.9369 0 58.5922)
(34.8726 0 91.7496)
(37.9369 0 84.2729)
(43.5508 0 81.9087)
(43.0349 0 90.4618)
(44.9584 0 74.4596)
(46.0622 0 18.2108)
)

end: 
20
(
(15.3797 0 18.2108)
(9.84281 0 52.531)
(6.87282 0 83.1702)
(15.3797 0 91.1057)
(26.2183 0 33.4328)
(20.1651 0 63.8907)
(20.1651 0 84.2729)
(27.8754 0 88.146)
(34.8726 0 49.2969)
(34.8726 0 70.6827)
(34.8726 0 77.7612)
(37.0123 0 12.6721)
(40.4597 0 41.8974)
(37.9369 0 58.5922)
(34.8726 0 91.7496)
(37.9369 0 84.2729)
(43.5508 0 81.9087)
(43.0349 0 90.4618)
(44.9584 0 74.4596)
(46.0622 0 18.2108)
)

start: 
20
(
(15.3797 0 18.2108)
(9.84281 0 52.531)
(6.87282 0 83.1702)
(15.3797 0 91.1057)
(26.2183 0 33.4328)
(20.1651 0 63.8907)
(20.1651 0 84.2729)
(27.8754 0 88.146)
(34.8726 0 49.2969)
(34.8726 0 70.6827)
(34.8726 0 77.7612)
(37.0123 0 12.6721)
(40.4597 0 41.8974)
(37.9369 0 58.5922)
(34.8726 0 91.7496)
(37.9369 0 84.2729)
(43.5508 0 81.9087)
(43.0349 0 90.4618)
(44.9584 0 74.4596)
(46.0622 0 18.2108)
)

end: 
20
(
(15.3797 0 18.2108)
(9.84281 0 52.531)
(6.87282 0 83.1702)
(15.3797 0 91.1057)
(26.2183 0 33.4328)
(20.1651 0 63.8907)
(20.1651 0 84.2729)
(27.8754 0 88.146)
(34.8726 0 49.2969)
(34.8726 0 70.6827)
(34.8726 0 77.7612)
(37.0123 0 12.6721)
(40.4597 0 41.8974)
(37.9369 0 58.5922)
(34.8726 0 91.7496)
(37.9369 0 84.2729)
(43.5508 0 81.9087)
(43.0349 0 90.4618)
(44.9584 0 74.4596)
(46.0622 0 18.2108)
)

start: 
20
(
(15.3797 0 18.2108)
(9.84281 0 52.531)
(6.87282 0 83.1702)
(15.3797 0 91.1057)
(26.2183 0 33.4328)
(20.1651 0 63.8907)
(20.1651 0 84.2729)
(27.8754 0 88.146)
(34.8726 0 49.2969)
(34.8726 0 70.6827)
(34.8726 0 77.7612)
(37.0123 0 12.6721)
(40.4597 0 41.8974)
(37.9369 0 58.5922)
(34.8726 0 91.7496)
(37.9369 0 84.2729)
(43.5508 0 81.9087)
(43.0349 0 90.4618)
(44.9584 0 74.4596)
(46.0622 0 18.2108)
)

end: 
20
(
(15.3797 0 18.2108)
(9.84281 0 52.531)
(6.87282 0 83.1702)
(15.3797 0 91.1057)
(26.2183 0 33.4328)
(20.1651 0 63.8907)
(20.1651 0 84.2729)
(27.8754 0 88.146)
(34.8726 0 49.2969)
(34.8726 0 70.6827)
(34.8726 0 77.7612)
(37.0123 0 12.6721)
(40.4597 0 41.8974)
(37.9369 0 58.5922)
(34.8726 0 91.7496)
(37.9369 0 84.2729)
(43.5508 0 81.9087)
(43.0349 0 90.4618)
(44.9584 0 74.4596)
(46.0622 0 18.2108)
)

start: 
20
(
(15.3797 0 18.2108)
(9.84281 0 52.531)
(6.87282 0 83.1702)
(15.3797 0 91.1057)
(26.2183 0 33.4328)
(20.1651 0 63.8907)
(20.1651 0 84.2729)
(27.8754 0 88.146)
(34.8726 0 49.2969)
(34.8726 0 70.6827)
(34.8726 0 77.7612)
(37.0123 0 12.6721)
(40.4597 0 41.8974)
(37.9369 0 58.5922)
(34.8726 0 91.7496)
(37.9369 0 84.2729)
(43.5508 0 81.9087)
(43.0349 0 90.4618)
(44.9584 0 74.4596)
(46.0622 0 18.2108)
)

end: 
20
(
(15.3797 0 18.2108)
(9.84281 0 52.531)
(6.87282 0 83.1702)
(15.3797 0 91.1057)
(26.2183 0 33.4328)
(20.1651 0 63.8907)
(20.1651 0 84.2729)
(27.8754 0 88.146)
(34.8726 0 49.2969)
(34.8726 0 70.6827)
(34.8726 0 77.7612)
(37.0123 0 12.6721)
(40.4597 0 41.8974)
(37.9369 0 58.5922)
(34.8726 0 91.7496)
(37.9369 0 84.2729)
(43.5508 0 81.9087)
(43.0349 0 90.4618)
(44.9584 0 74.4596)
(46.0622 0 18.2108)
)

start: 
20
(
(15.3797 0 18.2108)
(9.84281 0 52.531)
(6.87282 0 83.1702)
(15.3797 0 91.1057)
(26.2183 0 33.4328)
(20.1651 0 63.8907)
(20.1651 0 84.2729)
(27.8754 0 88.146)
(34.8726 0 49.2969)
(34.8726 0 70.6827)
(34.8726 0 77.7612)
(37.0123 0 12.6721)
(40.4597 0 41.8974)
(37.9369 0 58.5922)
(34.8726 0 91.7496)
(37.9369 0 84.2729)
(43.5508 0 81.9087)
(43.0349 0 90.4618)
(44.9584 0 74.4596)
(46.0622 0 18.2108)
)

end: 
20
(
(15.3797 0 18.2108)
(9.84281 0 52.531)
(6.87282 0 83.1702)
(15.3797 0 91.1057)
(26.2183 0 33.4328)
(20.1651 0 63.8907)
(20.1651 0 84.2729)
(27.8754 0 88.146)
(34.8726 0 49.2969)
(34.8726 0 70.6827)
(34.8726 0 77.7612)
(37.0123 0 12.6721)
(40.4597 0 41.8974)
(37.9369 0 58.5922)
(34.8726 0 91.7496)
(37.9369 0 84.2729)
(43.5508 0 81.9087)
(43.0349 0 90.4618)
(44.9584 0 74.4596)
(46.0622 0 18.2108)
)

start: 
20
(
(15.3797 0 18.2108)
(9.84281 0 52.531)
(6.87282 0 83.1702)
(15.3797 0 91.1057)
(26.2183 0 33.4328)
(20.1651 0 63.8907)
(20.1651 0 84.2729)
(27.8754 0 88.146)
(34.8726 0 49.2969)
(34.8726 0 70.6827)
(34.8726 0 77.7612)
(37.0123 0 12.6721)
(40.4597 0 41.8974)
(37.9369 0 58.5922)
(34.8726 0 91.7496)
(37.9369 0 84.2729)
(43.5508 0 81.9087)
(43.0349 0 90.4618)
(44.9584 0 74.4596)
(46.0622 0 18.2108)
)

end: 
20
(
(15.3797 0 18.2108)
(9.84281 0 52.531)
(6.87282 0 83.1702)
(15.3797 0 91.1057)
(26.2183 0 33.4328)
(20.1651 0 63.8907)
(20.1651 0 84.2729)
(27.8754 0 88.146)
(34.8726 0 49.2969)
(34.8726 0 70.6827)
(34.8726 0 77.7612)
(37.0123 0 12.6721)
(40.4597 0 41.8974)
(37.9369 0 58.5922)
(34.8726 0 91.7496)
(37.9369 0 84.2729)
(43.5508 0 81.9087)
(43.0349 0 90.4618)
(44.9584 0 74.4596)
(46.0622 0 18.2108)
)

start: 
20
(
(15.3797 0 18.2108)
(9.84281 0 52.531)
(6.87282 0 83.1702)
(15.3797 0 91.1057)
(26.2183 0 33.4328)
(20.1651 0 63.8907)
(20.1651 0 84.2729)
(27.8754 0 88.146)
(34.8726 0 49.2969)
(34.8726 0 70.6827)
(34.8726 0 77.7612)
(37.0123 0 12.6721)
(40.4597 0 41.8974)
(37.9369 0 58.5922)
(34.8726 0 91.7496)
(37.9369 0 84.2729)
(43.5508 0 81.9087)
(43.0349 0 90.4618)
(44.9584 0 74.4596)
(46.0622 0 18.2108)
)

end: 
20
(
(15.3797 0 18.2108)
(9.84281 0 52.531)
(6.87282 0 83.1702)
(15.3797 0 91.1057)
(26.2183 0 33.4328)
(20.1651 0 63.8907)
(20.1651 0 84.2729)
(27.8754 0 88.146)
(34.8726 0 49.2969)
(34.8726 0 70.6827)
(34.8726 0 77.7612)
(37.0123 0 12.6721)
(40.4597 0 41.8974)
(37.9369 0 58.5922)
(34.8726 0 91.7496)
(37.9369 0 84.2729)
(43.5508 0 81.9087)
(43.0349 0 90.4618)
(44.9584 0 74.4596)
(46.0622 0 18.2108)
)

start: 
20
(
(15.3797 0 18.2108)
(9.84281 0 52.531)
(6.87282 0 83.1702)
(15.3797 0 91.1057)
(26.2183 0 33.4328)
(20.1651 0 63.8907)
(20.1651 0 84.2729)
(27.8754 0 88.146)
(34.8726 0 49.2969)
(34.8726 0 70.6827)
(34.8726 0 77.7612)
(37.0123 0 12.6721)
(40.4597 0 41.8974)
(37.9369 0 58.5922)
(34.8726 0 91.7496)
(37.9369 0 84.2729)
(43.5508 0 81.9087)
(43.0349 0 90.4618)
(44.9584 0 74.4596)
(46.0622 0 18.2108)
)

end: 
20
(
(15.3797 0 18.2108)
(9.84281 0 52.531)
(6.87282 0 83.1702)
(15.3797 0 91.1057)
(26.2183 0 33.4328)
(20.1651 0 63.8907)
(20.1651 0 84.2729)
(27.8754 0 88.146)
(34.8726 0 49.2969)
(34.8726 0 70.6827)
(34.8726 0 77.7612)
(37.0123 0 12.6721)
(40.4597 0 41.8974)
(37.9369 0 58.5922)
(34.8726 0 91.7496)
(37.9369 0 84.2729)
(43.5508 0 81.9087)
(43.0349 0 90.4618)
(44.9584 0 74.4596)
(46.0622 0 18.2108)
)

start: 
20
(
(15.3797 0 18.2108)
(9.84281 0 52.531)
(6.87282 0 83.1702)
(15.3797 0 91.1057)
(26.2183 0 33.4328)
(20.1651 0 63.8907)
(20.1651 0 84.2729)
(27.8754 0 88.146)
(34.8726 0 49.2969)
(34.8726 0 70.6827)
(34.8726 0 77.7612)
(37.0123 0 12.6721)
(40.4597 0 41.8974)
(37.9369 0 58.5922)
(34.8726 0 91.7496)
(37.9369 0 84.2729)
(43.5508 0 81.9087)
(43.0349 0 90.4618)
(44.9584 0 74.4596)
(46.0622 0 18.2108)
)

end: 
20
(
(15.3797 0 18.2108)
(9.84281 0 52.531)
(6.87282 0 83.1702)
(15.3797 0 91.1057)
(26.2183 0 33.4328)
(20.1651 0 63.8907)
(20.1651 0 84.2729)
(27.8754 0 88.146)
(34.8726 0 49.2969)
(34.8726 0 70.6827)
(34.8726 0 77.7612)
(37.0123 0 12.6721)
(40.4597 0 41.8974)
(37.9369 0 58.5922)
(34.8726 0 91.7496)
(37.9369 0 84.2729)
(43.5508 0 81.9087)
(43.0349 0 90.4618)
(44.9584 0 74.4596)
(46.0622 0 18.2108)
)

start: 
20
(
(15.3797 0 18.2108)
(9.84281 0 52.531)
(6.87282 0 83.1702)
(15.3797 0 91.1057)
(26.2183 0 33.4328)
(20.1651 0 63.8907)
(20.1651 0 84.2729)
(27.8754 0 88.146)
(34.8726 0 49.2969)
(34.8726 0 70.6827)
(34.8726 0 77.7612)
(37.0123 0 12.6721)
(40.4597 0 41.8974)
(37.9369 0 58.5922)
(34.8726 0 91.7496)
(37.9369 0 84.2729)
(43.5508 0 81.9087)
(43.0349 0 90.4618)
(44.9584 0 74.4596)
(46.0622 0 18.2108)
)

end: 
20
(
(15.3797 0 18.2108)
(9.84281 0 52.531)
(6.87282 0 83.1702)
(15.3797 0 91.1057)
(26.2183 0 33.4328)
(20.1651 0 63.8907)
(20.1651 0 84.2729)
(27.8754 0 88.146)
(34.8726 0 49.2969)
(34.8726 0 70.6827)
(34.8726 0 77.7612)
(37.0123 0 12.6721)
(40.4597 0 41.8974)
(37.9369 0 58.5922)
(34.8726 0 91.7496)
(37.9369 0 84.2729)
(43.5508 0 81.9087)
(43.0349 0 90.4618)
(44.9584 0 74.4596)
(46.0622 0 18.2108)
)

start: 
20
(
(15.3797 0 18.2108)
(9.84281 0 52.531)
(6.87282 0 83.1702)
(15.3797 0 91.1057)
(26.2183 0 33.4328)
(20.1651 0 63.8907)
(20.1651 0 84.2729)
(27.8754 0 88.146)
(34.8726 0 49.2969)
(34.8726 0 70.6827)
(34.8726 0 77.7612)
(37.0123 0 12.6721)
(40.4597 0 41.8974)
(37.9369 0 58.5922)
(34.8726 0 91.7496)
(37.9369 0 84.2729)
(43.5508 0 81.9087)
(43.0349 0 90.4618)
(44.9584 0 74.4596)
(46.0622 0 18.2108)
)

end: 
20
(
(15.3797 0 18.2108)
(9.84281 0 52.531)
(6.87282 0 83.1702)
(15.3797 0 91.1057)
(26.2183 0 33.4328)
(20.1651 0 63.8907)
(20.1651 0 84.2729)
(27.8754 0 88.146)
(34.8726 0 49.2969)
(34.8726 0 70.6827)
(34.8726 0 77.7612)
(37.0123 0 12.6721)
(40.4597 0 41.8974)
(37.9369 0 58.5922)
(34.8726 0 91.7496)
(37.9369 0 84.2729)
(43.5508 0 81.9087)
(43.0349 0 90.4618)
(44.9584 0 74.4596)
(46.0622 0 18.2108)
)

start: 
20
(
(15.3797 0 18.2108)
(9.84281 0 52.531)
(6.87282 0 83.1702)
(15.3797 0 91.1057)
(26.2183 0 33.4328)
(20.1651 0 63.8907)
(20.1651 0 84.2729)
(27.8754 0 88.146)
(34.8726 0 49.2969)
(34.8726 0 70.6827)
(34.8726 0 77.7612)
(37.0123 0 12.6721)
(40.4597 0 41.8974)
(37.9369 0 58.5922)
(34.8726 0 91.7496)
(37.9369 0 84.2729)
(43.5508 0 81.9087)
(43.0349 0 90.4618)
(44.9584 0 74.4596)
(46.0622 0 18.2108)
)

end: 
20
(
(15.3797 0 18.2108)
(9.84281 0 52.531)
(6.87282 0 83.1702)
(15.3797 0 91.1057)
(26.2183 0 33.4328)
(20.1651 0 63.8907)
(20.1651 0 84.2729)
(27.8754 0 88.146)
(34.8726 0 49.2969)
(34.8726 0 70.6827)
(34.8726 0 77.7612)
(37.0123 0 12.6721)
(40.4597 0 41.8974)
(37.9369 0 58.5922)
(34.8726 0 91.7496)
(37.9369 0 84.2729)
(43.5508 0 81.9087)
(43.0349 0 90.4618)
(44.9584 0 74.4596)
(46.0622 0 18.2108)
)

start: 
20
(
(15.3797 0 18.2108)
(9.84281 0 52.531)
(6.87282 0 83.1702)
(15.3797 0 91.1057)
(26.2183 0 33.4328)
(20.1651 0 63.8907)
(20.1651 0 84.2729)
(27.8754 0 88.146)
(34.8726 0 49.2969)
(34.8726 0 70.6827)
(34.8726 0 77.7612)
(37.0123 0 12.6721)
(40.4597 0 41.8974)
(37.9369 0 58.5922)
(34.8726 0 91.7496)
(37.9369 0 84.2729)
(43.5508 0 81.9087)
(43.0349 0 90.4618)
(44.9584 0 74.4596)
(46.0622 0 18.2108)
)

end: 
20
(
(15.3797 0 18.2108)
(9.84281 0 52.531)
(6.87282 0 83.1702)
(15.3797 0 91.1057)
(26.2183 0 33.4328)
(20.1651 0 63.8907)
(20.1651 0 84.2729)
(27.8754 0 88.146)
(34.8726 0 49.2969)
(34.8726 0 70.6827)
(34.8726 0 77.7612)
(37.0123 0 12.6721)
(40.4597 0 41.8974)
(37.9369 0 58.5922)
(34.8726 0 91.7496)
(37.9369 0 84.2729)
(43.5508 0 81.9087)
(43.0349 0 90.4618)
(44.9584 0 74.4596)
(46.0622 0 18.2108)
)

start: 
20
(
(15.3797 0 18.2108)
(9.84281 0 52.531)
(6.87282 0 83.1702)
(15.3797 0 91.1057)
(26.2183 0 33.4328)
(20.1651 0 63.8907)
(20.1651 0 84.2729)
(27.8754 0 88.146)
(34.8726 0 49.2969)
(34.8726 0 70.6827)
(34.8726 0 77.7612)
(37.0123 0 12.6721)
(40.4597 0 41.8974)
(37.9369 0 58.5922)
(34.8726 0 91.7496)
(37.9369 0 84.2729)
(43.5508 0 81.9087)
(43.0349 0 90.4618)
(44.9584 0 74.4596)
(46.0622 0 18.2108)
)

end: 
20
(
(15.3797 0 18.2108)
(9.84281 0 52.531)
(6.87282 0 83.1702)
(15.3797 0 91.1057)
(26.2183 0 33.4328)
(20.1651 0 63.8907)
(20.1651 0 84.2729)
(27.8754 0 88.146)
(34.8726 0 49.2969)
(34.8726 0 70.6827)
(34.8726 0 77.7612)
(37.0123 0 12.6721)
(40.4597 0 41.8974)
(37.9369 0 58.5922)
(34.8726 0 91.7496)
(37.9369 0 84.2729)
(43.5508 0 81.9087)
(43.0349 0 90.4618)
(44.9584 0 74.4596)
(46.0622 0 18.2108)
)

start: 
20
(
(15.3797 0 18.2108)
(9.84281 0 52.531)
(6.87282 0 83.1702)
(15.3797 0 91.1057)
(26.2183 0 33.4328)
(20.1651 0 63.8907)
(20.1651 0 84.2729)
(27.8754 0 88.146)
(34.8726 0 49.2969)
(34.8726 0 70.6827)
(34.8726 0 77.7612)
(37.0123 0 12.6721)
(40.4597 0 41.8974)
(37.9369 0 58.5922)
(34.8726 0 91.7496)
(37.9369 0 84.2729)
(43.5508 0 81.9087)
(43.0349 0 90.4618)
(44.9584 0 74.4596)
(46.0622 0 18.2108)
)

end: 
20
(
(15.3797 0 18.2108)
(9.84281 0 52.531)
(6.87282 0 83.1702)
(15.3797 0 91.1057)
(26.2183 0 33.4328)
(20.1651 0 63.8907)
(20.1651 0 84.2729)
(27.8754 0 88.146)
(34.8726 0 49.2969)
(34.8726 0 70.6827)
(34.8726 0 77.7612)
(37.0123 0 12.6721)
(40.4597 0 41.8974)
(37.9369 0 58.5922)
(34.8726 0 91.7496)
(37.9369 0 84.2729)
(43.5508 0 81.9087)
(43.0349 0 90.4618)
(44.9584 0 74.4596)
(46.0622 0 18.2108)
)

start: 
20
(
(15.3797 0 18.2108)
(9.84281 0 52.531)
(6.87282 0 83.1702)
(15.3797 0 91.1057)
(26.2183 0 33.4328)
(20.1651 0 63.8907)
(20.1651 0 84.2729)
(27.8754 0 88.146)
(34.8726 0 49.2969)
(34.8726 0 70.6827)
(34.8726 0 77.7612)
(37.0123 0 12.6721)
(40.4597 0 41.8974)
(37.9369 0 58.5922)
(34.8726 0 91.7496)
(37.9369 0 84.2729)
(43.5508 0 81.9087)
(43.0349 0 90.4618)
(44.9584 0 74.4596)
(46.0622 0 18.2108)
)

end: 
20
(
(15.3797 0 18.2108)
(9.84281 0 52.531)
(6.87282 0 83.1702)
(15.3797 0 91.1057)
(26.2183 0 33.4328)
(20.1651 0 63.8907)
(20.1651 0 84.2729)
(27.8754 0 88.146)
(34.8726 0 49.2969)
(34.8726 0 70.6827)
(34.8726 0 77.7612)
(37.0123 0 12.6721)
(40.4597 0 41.8974)
(37.9369 0 58.5922)
(34.8726 0 91.7496)
(37.9369 0 84.2729)
(43.5508 0 81.9087)
(43.0349 0 90.4618)
(44.9584 0 74.4596)
(46.0622 0 18.2108)
)

start: 
20
(
(15.3797 0 18.2108)
(9.84281 0 52.531)
(6.87282 0 83.1702)
(15.3797 0 91.1057)
(26.2183 0 33.4328)
(20.1651 0 63.8907)
(20.1651 0 84.2729)
(27.8754 0 88.146)
(34.8726 0 49.2969)
(34.8726 0 70.6827)
(34.8726 0 77.7612)
(37.0123 0 12.6721)
(40.4597 0 41.8974)
(37.9369 0 58.5922)
(34.8726 0 91.7496)
(37.9369 0 84.2729)
(43.5508 0 81.9087)
(43.0349 0 90.4618)
(44.9584 0 74.4596)
(46.0622 0 18.2108)
)

end: 
20
(
(15.3797 0 18.2108)
(9.84281 0 52.531)
(6.87282 0 83.1702)
(15.3797 0 91.1057)
(26.2183 0 33.4328)
(20.1651 0 63.8907)
(20.1651 0 84.2729)
(27.8754 0 88.146)
(34.8726 0 49.2969)
(34.8726 0 70.6827)
(34.8726 0 77.7612)
(37.0123 0 12.6721)
(40.4597 0 41.8974)
(37.9369 0 58.5922)
(34.8726 0 91.7496)
(37.9369 0 84.2729)
(43.5508 0 81.9087)
(43.0349 0 90.4618)
(44.9584 0 74.4596)
(46.0622 0 18.2108)
)

start: 
20
(
(15.3797 0 18.2108)
(9.84281 0 52.531)
(6.87282 0 83.1702)
(15.3797 0 91.1057)
(26.2183 0 33.4328)
(20.1651 0 63.8907)
(20.1651 0 84.2729)
(27.8754 0 88.146)
(34.8726 0 49.2969)
(34.8726 0 70.6827)
(34.8726 0 77.7612)
(37.0123 0 12.6721)
(40.4597 0 41.8974)
(37.9369 0 58.5922)
(34.8726 0 91.7496)
(37.9369 0 84.2729)
(43.5508 0 81.9087)
(43.0349 0 90.4618)
(44.9584 0 74.4596)
(46.0622 0 18.2108)
)

end: 
20
(
(15.3797 0 18.2108)
(9.84281 0 52.531)
(6.87282 0 83.1702)
(15.3797 0 91.1057)
(26.2183 0 33.4328)
(20.1651 0 63.8907)
(20.1651 0 84.2729)
(27.8754 0 88.146)
(34.8726 0 49.2969)
(34.8726 0 70.6827)
(34.8726 0 77.7612)
(37.0123 0 12.6721)
(40.4597 0 41.8974)
(37.9369 0 58.5922)
(34.8726 0 91.7496)
(37.9369 0 84.2729)
(43.5508 0 81.9087)
(43.0349 0 90.4618)
(44.9584 0 74.4596)
(46.0622 0 18.2108)
)

start: 
20
(
(15.3797 0 18.2108)
(9.84281 0 52.531)
(6.87282 0 83.1702)
(15.3797 0 91.1057)
(26.2183 0 33.4328)
(20.1651 0 63.8907)
(20.1651 0 84.2729)
(27.8754 0 88.146)
(34.8726 0 49.2969)
(34.8726 0 70.6827)
(34.8726 0 77.7612)
(37.0123 0 12.6721)
(40.4597 0 41.8974)
(37.9369 0 58.5922)
(34.8726 0 91.7496)
(37.9369 0 84.2729)
(43.5508 0 81.9087)
(43.0349 0 90.4618)
(44.9584 0 74.4596)
(46.0622 0 18.2108)
)

end: 
20
(
(15.3797 0 18.2108)
(9.84281 0 52.531)
(6.87282 0 83.1702)
(15.3797 0 91.1057)
(26.2183 0 33.4328)
(20.1651 0 63.8907)
(20.1651 0 84.2729)
(27.8754 0 88.146)
(34.8726 0 49.2969)
(34.8726 0 70.6827)
(34.8726 0 77.7612)
(37.0123 0 12.6721)
(40.4597 0 41.8974)
(37.9369 0 58.5922)
(34.8726 0 91.7496)
(37.9369 0 84.2729)
(43.5508 0 81.9087)
(43.0349 0 90.4618)
(44.9584 0 74.4596)
(46.0622 0 18.2108)
)

start: 
20
(
(15.3797 0 18.2108)
(9.84281 0 52.531)
(6.87282 0 83.1702)
(15.3797 0 91.1057)
(26.2183 0 33.4328)
(20.1651 0 63.8907)
(20.1651 0 84.2729)
(27.8754 0 88.146)
(34.8726 0 49.2969)
(34.8726 0 70.6827)
(34.8726 0 77.7612)
(37.0123 0 12.6721)
(40.4597 0 41.8974)
(37.9369 0 58.5922)
(34.8726 0 91.7496)
(37.9369 0 84.2729)
(43.5508 0 81.9087)
(43.0349 0 90.4618)
(44.9584 0 74.4596)
(46.0622 0 18.2108)
)

end: 
20
(
(15.3797 0 18.2108)
(9.84281 0 52.531)
(6.87282 0 83.1702)
(15.3797 0 91.1057)
(26.2183 0 33.4328)
(20.1651 0 63.8907)
(20.1651 0 84.2729)
(27.8754 0 88.146)
(34.8726 0 49.2969)
(34.8726 0 70.6827)
(34.8726 0 77.7612)
(37.0123 0 12.6721)
(40.4597 0 41.8974)
(37.9369 0 58.5922)
(34.8726 0 91.7496)
(37.9369 0 84.2729)
(43.5508 0 81.9087)
(43.0349 0 90.4618)
(44.9584 0 74.4596)
(46.0622 0 18.2108)
)

start: 
20
(
(15.3797 0 18.2108)
(9.84281 0 52.531)
(6.87282 0 83.1702)
(15.3797 0 91.1057)
(26.2183 0 33.4328)
(20.1651 0 63.8907)
(20.1651 0 84.2729)
(27.8754 0 88.146)
(34.8726 0 49.2969)
(34.8726 0 70.6827)
(34.8726 0 77.7612)
(37.0123 0 12.6721)
(40.4597 0 41.8974)
(37.9369 0 58.5922)
(34.8726 0 91.7496)
(37.9369 0 84.2729)
(43.5508 0 81.9087)
(43.0349 0 90.4618)
(44.9584 0 74.4596)
(46.0622 0 18.2108)
)

end: 
20
(
(15.3797 0 18.2108)
(9.84281 0 52.531)
(6.87282 0 83.1702)
(15.3797 0 91.1057)
(26.2183 0 33.4328)
(20.1651 0 63.8907)
(20.1651 0 84.2729)
(27.8754 0 88.146)
(34.8726 0 49.2969)
(34.8726 0 70.6827)
(34.8726 0 77.7612)
(37.0123 0 12.6721)
(40.4597 0 41.8974)
(37.9369 0 58.5922)
(34.8726 0 91.7496)
(37.9369 0 84.2729)
(43.5508 0 81.9087)
(43.0349 0 90.4618)
(44.9584 0 74.4596)
(46.0622 0 18.2108)
)

start: 
20
(
(15.3797 0 18.2108)
(9.84281 0 52.531)
(6.87282 0 83.1702)
(15.3797 0 91.1057)
(26.2183 0 33.4328)
(20.1651 0 63.8907)
(20.1651 0 84.2729)
(27.8754 0 88.146)
(34.8726 0 49.2969)
(34.8726 0 70.6827)
(34.8726 0 77.7612)
(37.0123 0 12.6721)
(40.4597 0 41.8974)
(37.9369 0 58.5922)
(34.8726 0 91.7496)
(37.9369 0 84.2729)
(43.5508 0 81.9087)
(43.0349 0 90.4618)
(44.9584 0 74.4596)
(46.0622 0 18.2108)
)

end: 
20
(
(15.3797 0 18.2108)
(9.84281 0 52.531)
(6.87282 0 83.1702)
(15.3797 0 91.1057)
(26.2183 0 33.4328)
(20.1651 0 63.8907)
(20.1651 0 84.2729)
(27.8754 0 88.146)
(34.8726 0 49.2969)
(34.8726 0 70.6827)
(34.8726 0 77.7612)
(37.0123 0 12.6721)
(40.4597 0 41.8974)
(37.9369 0 58.5922)
(34.8726 0 91.7496)
(37.9369 0 84.2729)
(43.5508 0 81.9087)
(43.0349 0 90.4618)
(44.9584 0 74.4596)
(46.0622 0 18.2108)
)

start: 
20
(
(15.3797 0 18.2108)
(9.84281 0 52.531)
(6.87282 0 83.1702)
(15.3797 0 91.1057)
(26.2183 0 33.4328)
(20.1651 0 63.8907)
(20.1651 0 84.2729)
(27.8754 0 88.146)
(34.8726 0 49.2969)
(34.8726 0 70.6827)
(34.8726 0 77.7612)
(37.0123 0 12.6721)
(40.4597 0 41.8974)
(37.9369 0 58.5922)
(34.8726 0 91.7496)
(37.9369 0 84.2729)
(43.5508 0 81.9087)
(43.0349 0 90.4618)
(44.9584 0 74.4596)
(46.0622 0 18.2108)
)

end: 
20
(
(15.3797 0 18.2108)
(9.84281 0 52.531)
(6.87282 0 83.1702)
(15.3797 0 91.1057)
(26.2183 0 33.4328)
(20.1651 0 63.8907)
(20.1651 0 84.2729)
(27.8754 0 88.146)
(34.8726 0 49.2969)
(34.8726 0 70.6827)
(34.8726 0 77.7612)
(37.0123 0 12.6721)
(40.4597 0 41.8974)
(37.9369 0 58.5922)
(34.8726 0 91.7496)
(37.9369 0 84.2729)
(43.5508 0 81.9087)
(43.0349 0 90.4618)
(44.9584 0 74.4596)
(46.0622 0 18.2108)
)

start: 
20
(
(15.3797 0 18.2108)
(9.84281 0 52.531)
(6.87282 0 83.1702)
(15.3797 0 91.1057)
(26.2183 0 33.4328)
(20.1651 0 63.8907)
(20.1651 0 84.2729)
(27.8754 0 88.146)
(34.8726 0 49.2969)
(34.8726 0 70.6827)
(34.8726 0 77.7612)
(37.0123 0 12.6721)
(40.4597 0 41.8974)
(37.9369 0 58.5922)
(34.8726 0 91.7496)
(37.9369 0 84.2729)
(43.5508 0 81.9087)
(43.0349 0 90.4618)
(44.9584 0 74.4596)
(46.0622 0 18.2108)
)

end: 
20
(
(15.3797 0 18.2108)
(9.84281 0 52.531)
(6.87282 0 83.1702)
(15.3797 0 91.1057)
(26.2183 0 33.4328)
(20.1651 0 63.8907)
(20.1651 0 84.2729)
(27.8754 0 88.146)
(34.8726 0 49.2969)
(34.8726 0 70.6827)
(34.8726 0 77.7612)
(37.0123 0 12.6721)
(40.4597 0 41.8974)
(37.9369 0 58.5922)
(34.8726 0 91.7496)
(37.9369 0 84.2729)
(43.5508 0 81.9087)
(43.0349 0 90.4618)
(44.9584 0 74.4596)
(46.0622 0 18.2108)
)

start: 
20
(
(15.3797 0 18.2108)
(9.84281 0 52.531)
(6.87282 0 83.1702)
(15.3797 0 91.1057)
(26.2183 0 33.4328)
(20.1651 0 63.8907)
(20.1651 0 84.2729)
(27.8754 0 88.146)
(34.8726 0 49.2969)
(34.8726 0 70.6827)
(34.8726 0 77.7612)
(37.0123 0 12.6721)
(40.4597 0 41.8974)
(37.9369 0 58.5922)
(34.8726 0 91.7496)
(37.9369 0 84.2729)
(43.5508 0 81.9087)
(43.0349 0 90.4618)
(44.9584 0 74.4596)
(46.0622 0 18.2108)
)

end: 
20
(
(15.3797 0 18.2108)
(9.84281 0 52.531)
(6.87282 0 83.1702)
(15.3797 0 91.1057)
(26.2183 0 33.4328)
(20.1651 0 63.8907)
(20.1651 0 84.2729)
(27.8754 0 88.146)
(34.8726 0 49.2969)
(34.8726 0 70.6827)
(34.8726 0 77.7612)
(37.0123 0 12.6721)
(40.4597 0 41.8974)
(37.9369 0 58.5922)
(34.8726 0 91.7496)
(37.9369 0 84.2729)
(43.5508 0 81.9087)
(43.0349 0 90.4618)
(44.9584 0 74.4596)
(46.0622 0 18.2108)
)

start: 
20
(
(15.3797 0 18.2108)
(9.84281 0 52.531)
(6.87282 0 83.1702)
(15.3797 0 91.1057)
(26.2183 0 33.4328)
(20.1651 0 63.8907)
(20.1651 0 84.2729)
(27.8754 0 88.146)
(34.8726 0 49.2969)
(34.8726 0 70.6827)
(34.8726 0 77.7612)
(37.0123 0 12.6721)
(40.4597 0 41.8974)
(37.9369 0 58.5922)
(34.8726 0 91.7496)
(37.9369 0 84.2729)
(43.5508 0 81.9087)
(43.0349 0 90.4618)
(44.9584 0 74.4596)
(46.0622 0 18.2108)
)

end: 
20
(
(15.3797 0 18.2108)
(9.84281 0 52.531)
(6.87282 0 83.1702)
(15.3797 0 91.1057)
(26.2183 0 33.4328)
(20.1651 0 63.8907)
(20.1651 0 84.2729)
(27.8754 0 88.146)
(34.8726 0 49.2969)
(34.8726 0 70.6827)
(34.8726 0 77.7612)
(37.0123 0 12.6721)
(40.4597 0 41.8974)
(37.9369 0 58.5922)
(34.8726 0 91.7496)
(37.9369 0 84.2729)
(43.5508 0 81.9087)
(43.0349 0 90.4618)
(44.9584 0 74.4596)
(46.0622 0 18.2108)
)

start: 
20
(
(15.3823 3.96408e-05 18.209)
(9.8503 0.000114348 52.5257)
(6.88468 0.000181043 83.1619)
(15.3927 0.000198316 91.0966)
(26.2231 7.27756e-05 33.4295)
(20.1742 0.000139075 63.8843)
(20.1771 0.000183443 84.2645)
(27.888 0.000191874 88.1372)
(34.8796 0.000107308 49.292)
(34.8827 0.00015386 70.6756)
(34.8837 0.000169268 77.7534)
(37.0141 2.75843e-05 12.6708)
(40.4657 9.12011e-05 41.8932)
(37.9453 0.000127542 58.5864)
(34.8857 0.000199718 91.7404)
(37.9489 0.000183443 84.2645)
(43.5624 0.000178297 81.9006)
(43.0478 0.000196915 90.4528)
(44.969 0.000162082 74.4522)
(46.0647 3.96408e-05 18.209)
)

end: 
20
(
(41.3551 0.396368 0.00182108)
(84.7716 1.14337 0.0052531)
(125.505 1.81024 0.00831702)
(145.33 1.98297 0.00911057)
(73.9059 0.727683 0.00334328)
(111.297 1.39062 0.00638907)
(140.37 1.83425 0.00842729)
(153.605 1.91855 0.0088146)
(105.188 1.07297 0.00492969)
(135.692 1.53845 0.00706827)
(145.789 1.69251 0.00777612)
(55.0874 0.275815 0.00126721)
(100.221 0.91192 0.00418974)
(121.511 1.27529 0.00585923)
(165.742 1.99698 0.00917496)
(158.141 1.83425 0.00842729)
(160.383 1.78279 0.00819087)
(172.067 1.96895 0.00904618)
(151.166 1.62065 0.00744596)
(72.0375 0.396368 0.00182108)
)

start: 
20
(
(15.3825 0.000122925 18.209)
(9.85083 0.000354589 52.5257)
(6.88552 0.000561407 83.1619)
(15.3936 0.000614973 91.0966)
(26.2234 0.000225675 33.4295)
(20.1748 0.000431269 63.8843)
(20.1779 0.00056885 84.2645)
(27.8889 0.000594995 88.1372)
(34.8801 0.000332759 49.292)
(34.8834 0.000477115 70.6756)
(34.8845 0.000524896 77.7534)
(37.0142 8.55379e-05 12.6708)
(40.4661 0.000282812 41.8932)
(37.9458 0.000395504 58.5864)
(34.8866 0.000619319 91.7404)
(37.9498 0.00056885 84.2645)
(43.5633 0.000552892 81.9006)
(43.0487 0.000610626 90.4528)
(44.9698 0.00050261 74.4522)
(46.0649 0.000122925 18.209)
)

end: 
20
(
(43.1902 1.22912 0.00182108)
(90.065 3.54554 0.0052531)
(133.885 5.61351 0.00831702)
(154.511 6.14911 0.00911057)
(77.2749 2.25652 0.00334328)
(117.735 4.31225 0.00638907)
(148.862 5.68794 0.00842729)
(162.487 5.94935 0.0088146)
(110.156 3.32726 0.00492969)
(142.815 4.77068 0.00706827)
(153.625 5.24843 0.00777612)
(56.3644 0.855294 0.00126721)
(104.443 2.82783 0.00418974)
(127.416 3.95464 0.00585923)
(174.987 6.19257 0.00917496)
(166.633 5.68794 0.00842729)
(168.637 5.52837 0.00819087)
(181.183 6.10565 0.00904618)
(158.669 5.02559 0.00744596)
(73.8726 1.22912 0.00182108)
)

start: 
20
(
(15.3827 0.000216627 18.209)
(9.85141 0.000624884 52.5257)
(6.88643 0.000989353 83.1619)
(15.3946 0.00108375 91.0966)
(26.2238 0.000397701 33.4295)
(20.1755 0.000760013 63.8843)
(20.1788 0.00100247 84.2645)
(27.8899 0.00104854 88.1372)
(34.8807 0.000586412 49.292)
(34.8842 0.000840808 70.6756)
(34.8853 0.00092501 77.7534)
(37.0144 0.000150741 12.6708)
(40.4666 0.000498391 41.8932)
(37.9465 0.000696985 58.5864)
(34.8876 0.00109141 91.7404)
(37.9507 0.00100247 84.2645)
(43.5642 0.000974347 81.9006)
(43.0497 0.00107609 90.4528)
(44.9706 0.000885736 74.4522)
(46.0651 0.000216627 18.209)
)

end: 
20
(
(45.187 2.16605 0.00182108)
(95.8253 6.24821 0.0052531)
(143.005 9.89254 0.00831702)
(164.501 10.8364 0.00911057)
(80.9409 3.97661 0.00334328)
(124.741 7.59937 0.00638907)
(158.102 10.0237 0.00842729)
(172.152 10.4844 0.0088146)
(115.562 5.86354 0.00492969)
(150.566 8.40724 0.00706827)
(162.152 9.24918 0.00777612)
(57.7539 1.50726 0.00126721)
(109.037 4.98342 0.00418974)
(133.84 6.96916 0.00585923)
(185.048 10.913 0.00917496)
(175.874 10.0237 0.00842729)
(177.619 9.7425 0.00819087)
(191.102 10.7598 0.00904618)
(166.833 8.85647 0.00744596)
(75.8695 2.16605 0.00182108)
)

start: 
20
(
(15.3829 0.000322559 18.209)
(9.85204 0.000930456 52.5257)
(6.88743 0.00147315 83.1619)
(15.3957 0.00161371 91.0966)
(26.2242 0.000592179 33.4295)
(20.1763 0.00113166 63.8843)
(20.1799 0.00149268 84.2645)
(27.8909 0.00156129 88.1372)
(34.8813 0.000873172 49.292)
(34.885 0.00125197 70.6756)
(34.8863 0.00137735 77.7534)
(37.0145 0.000224455 12.6708)
(40.4671 0.000742108 41.8932)
(37.9472 0.00103782 58.5864)
(34.8887 0.00162512 91.7404)
(37.9517 0.00149268 84.2645)
(43.5651 0.00145081 81.9006)
(43.0508 0.00160231 90.4528)
(44.9715 0.00131887 74.4522)
(46.0653 0.000322559 18.209)
)

end: 
20
(
(47.3744 3.22527 0.00182108)
(102.135 9.30363 0.0052531)
(152.995 14.7301 0.00831702)
(175.444 16.1355 0.00911057)
(84.9567 5.92119 0.00334328)
(132.415 11.3155 0.00638907)
(168.225 14.9254 0.00842729)
(182.74 15.6113 0.0088146)
(121.483 8.73084 0.00492969)
(159.056 12.5184 0.00706827)
(171.492 13.7721 0.00777612)
(59.276 2.24432 0.00126721)
(114.07 7.42034 0.00418974)
(140.878 10.3771 0.00585923)
(196.068 16.2495 0.00917496)
(185.997 14.9254 0.00842729)
(187.457 14.5066 0.00819087)
(201.968 16.0214 0.00904618)
(175.777 13.1873 0.00744596)
(78.0569 3.22527 0.00182108)
)

start: 
20
(
(15.3831 0.000442984 18.209)
(9.85274 0.00127784 52.5257)
(6.88854 0.00202315 83.1619)
(15.3969 0.00221618 91.0966)
(26.2246 0.000813265 33.4295)
(20.1771 0.00155416 63.8843)
(20.181 0.00204997 84.2645)
(27.8921 0.00214419 88.1372)
(34.8819 0.00119917 49.292)
(34.886 0.00171938 70.6756)
(34.8873 0.00189157 77.7534)
(37.0147 0.000308253 12.6708)
(40.4676 0.00101917 41.8932)
(37.948 0.00142528 58.5864)
(34.8899 0.00223184 91.7404)
(37.9528 0.00204997 84.2645)
(43.5662 0.00199246 81.9006)
(43.052 0.00220052 90.4528)
(44.9725 0.00181126 74.4522)
(46.0656 0.000442984 18.209)
)

end: 
20
(
(49.788 4.4294 0.00182108)
(109.097 12.7771 0.0052531)
(164.018 20.2294 0.00831702)
(187.519 22.1596 0.00911057)
(89.3878 8.13184 0.00334328)
(140.883 15.5401 0.00638907)
(179.394 20.4976 0.00842729)
(194.423 21.4397 0.0088146)
(128.016 11.9905 0.00492969)
(168.424 17.1921 0.00706827)
(181.798 18.9138 0.00777612)
(60.9556 3.08223 0.00126721)
(119.623 10.1907 0.00418974)
(148.644 14.2514 0.00585923)
(208.229 22.3162 0.00917496)
(197.166 20.4976 0.00842729)
(198.313 19.9226 0.00819087)
(213.958 22.003 0.00904618)
(185.646 18.1108 0.00744596)
(80.4705 4.4294 0.00182108)
)

start: 
20
(
(15.3834 0.00058077 18.209)
(9.85351 0.00167529 52.5257)
(6.88976 0.00265242 83.1619)
(15.3983 0.0029055 91.0966)
(26.2251 0.00106622 33.4295)
(20.1781 0.00203757 63.8843)
(20.1822 0.00268759 84.2645)
(27.8934 0.00281111 88.1372)
(34.8826 0.00157215 49.292)
(34.887 0.00225418 70.6756)
(34.8884 0.00247992 77.7534)
(37.0149 0.000404132 12.6708)
(40.4682 0.00133617 41.8932)
(37.9488 0.00186859 58.5864)
(34.8913 0.00292603 91.7404)
(37.9541 0.00268759 84.2645)
(43.5674 0.00261219 81.9006)
(43.0533 0.00288496 90.4528)
(44.9736 0.00237463 74.4522)
(46.0659 0.00058077 18.209)
)

end: 
20
(
(52.4729 5.80711 0.00182108)
(116.842 16.7512 0.0052531)
(176.281 26.5216 0.00831702)
(200.951 29.0521 0.00911057)
(94.317 10.6612 0.00334328)
(150.303 20.3737 0.00638907)
(191.819 26.8732 0.00842729)
(207.419 28.1083 0.0088146)
(135.285 15.7199 0.00492969)
(178.845 22.5395 0.00706827)
(193.263 24.7967 0.00777612)
(62.8239 4.04092 0.00126721)
(125.8 13.3604 0.00418974)
(157.282 18.6841 0.00585923)
(221.756 29.2574 0.00917496)
(209.591 26.8732 0.00842729)
(210.389 26.1193 0.00819087)
(227.295 28.8467 0.00904618)
(196.624 23.7439 0.00744596)
(83.1554 5.80711 0.00182108)
)

start: 
20
(
(15.3837 0.000739595 18.209)
(9.85438 0.00213344 52.5257)
(6.89114 0.00337779 83.1619)
(15.3998 0.00370008 91.0966)
(26.2257 0.00135781 33.4295)
(20.1791 0.00259479 63.8843)
(20.1836 0.00342258 84.2645)
(27.8949 0.00357988 88.1372)
(34.8835 0.0020021 49.292)
(34.8882 0.00287064 70.6756)
(34.8897 0.00315812 77.7534)
(37.0151 0.000514652 12.6708)
(40.4689 0.00170158 41.8932)
(37.9498 0.00237961 58.5864)
(34.8921 0.00359788 91.7407)
(37.9555 0.00342258 84.2645)
(43.5688 0.00332656 81.9006)
(43.0536 0.00344738 90.4533)
(44.9748 0.00302403 74.4522)
(46.0662 0.000739595 18.209)
)

end: 
20
(
(55.4869 7.39521 0.00182108)
(125.536 21.3323 0.0052531)
(190.046 33.7745 0.00831702)
(216.03 36.9971 0.00911057)
(99.8502 13.5767 0.00334328)
(160.877 25.9453 0.00638907)
(205.766 34.2223 0.00842729)
(222.007 35.7952 0.0088146)
(143.443 20.0189 0.00492969)
(190.543 28.7035 0.00706827)
(206.133 31.578 0.00777612)
(64.9211 5.14601 0.00126721)
(132.734 17.0141 0.00418974)
(166.98 23.7937 0.00585923)
(229.98 35.9752 3.16912)
(223.538 34.2223 0.00842729)
(223.945 33.2623 0.00819087)
(229.981 34.4703 5.58669)
(208.947 30.2373 0.00744596)
(86.1694 7.39521 0.00182108)
)

start: 
20
(
(15.3841 0.000924268 18.209)
(9.85537 0.00266615 52.5257)
(6.8927 0.00422121 83.1619)
(15.4012 0.00455703 91.0967)
(26.2263 0.00169684 33.4295)
(20.1803 0.0032427 63.8843)
(20.1852 0.00427717 84.2645)
(27.8957 0.00429171 88.1376)
(34.8844 0.00250201 49.292)
(34.8895 0.00358742 70.6756)
(34.8912 0.00394668 77.7534)
(37.0153 0.000643157 12.6708)
(40.4697 0.00212645 41.8932)
(37.9509 0.00297378 58.5864)
(34.8921 0.00414313 91.7414)
(37.9561 0.00407807 84.2649)
(43.5694 0.00395887 81.9009)
(43.0536 0.00396982 90.454)
(44.9762 0.00377911 74.4522)
(46.0665 0.000924268 18.209)
)

end: 
20
(
(58.9052 9.24175 0.00182108)
(135.397 26.6588 0.0052531)
(205.657 42.2078 0.00831702)
(229.979 45.5657 1.32779)
(106.126 16.9667 0.00334328)
(172.87 32.4237 0.00638907)
(221.585 42.7674 0.00842729)
(229.98 42.9128 3.59525)
(152.697 25.0176 0.00492969)
(203.811 35.8706 0.00706827)
(220.729 39.4628 0.00777612)
(67.2998 6.43093 0.00126721)
(140.598 21.2624 0.00418974)
(177.978 29.7348 0.00585923)
(229.98 41.4272 10.1258)
(229.981 40.7766 3.9309)
(229.981 39.5848 3.91509)
(229.981 39.6943 12.2524)
(222.924 37.7873 0.00744596)
(89.5876 9.24175 0.00182108)
)

start: 
20
(
(15.3844 0.00114118 18.209)
(9.8565 0.00329186 52.5257)
(6.89449 0.00521187 83.1619)
(15.4012 0.00516136 91.0975)
(26.227 0.00209507 33.4295)
(20.1817 0.00400372 63.8843)
(20.186 0.00504628 84.2648)
(27.8957 0.00486085 88.1383)
(34.8854 0.00308919 49.292)
(34.891 0.00442934 70.6756)
(34.8921 0.00469258 77.7537)
(37.0156 0.000794098 12.6708)
(40.4706 0.0026255 41.8932)
(37.9522 0.00367169 58.5864)
(34.8921 0.00469258 91.7421)
(37.9561 0.00461888 84.2655)
(43.5694 0.00448388 81.9016)
(43.0536 0.00449628 90.4546)
(44.9769 0.00445003 74.4525)
(46.0669 0.00114118 18.209)
)

end: 
20
(
(62.8277 11.4107 0.00182108)
(146.712 32.9153 0.0052531)
(223.572 52.1135 0.00831702)
(229.979 51.6084 8.74976)
(113.327 20.9486 0.00334328)
(186.631 40.0332 0.00638907)
(229.979 50.4577 3.75324)
(229.98 48.6036 10.5851)
(163.315 30.8889 0.00492969)
(219.036 44.2889 0.00706827)
(229.98 46.9211 2.88525)
(70.0293 7.94019 0.00126721)
(149.623 26.2524 0.00418974)
(190.598 36.7132 0.00585923)
(229.98 46.9211 16.8736)
(229.981 46.1842 10.5728)
(229.981 44.8343 10.3628)
(229.981 44.9583 18.718)
(229.981 44.4958 3.45386)
(93.5102 11.4107 0.00182108)
)

start: 
20
(
(15.3849 0.00139903 18.209)
(9.85781 0.00403566 52.5257)
(6.89513 0.006 83.1624)
(15.4012 0.00577249 91.0982)
(26.2278 0.00256845 33.4295)
(20.1833 0.00490836 63.8843)
(20.186 0.00564378 84.2656)
(27.8957 0.0054364 88.139)
(34.8867 0.0037872 49.292)
(34.8921 0.0052482 70.6759)
(34.8921 0.0052482 77.7544)
(37.0159 0.000973525 12.6708)
(40.4717 0.00321874 41.8932)
(37.9536 0.00450131 58.5864)
(34.8921 0.0052482 91.7428)
(37.9561 0.00516579 84.2662)
(43.5694 0.00501479 81.9022)
(43.0536 0.00502867 90.4553)
(44.9769 0.00497693 74.4531)
(46.0674 0.00139903 18.209)
)

end: 
20
(
(67.3903 13.9889 0.00182108)
(159.873 40.3525 0.0052531)
(229.93 59.994 5.07774)
(229.979 57.7191 15.9744)
(121.703 25.682 0.00334328)
(202.639 49.0787 0.00638907)
(229.979 56.4322 10.8168)
(229.98 54.3586 17.3891)
(175.666 37.8682 0.00492969)
(229.98 52.4768 2.37517)
(229.98 52.4768 9.45367)
(73.2042 9.73428 0.00126721)
(160.12 32.1842 0.00418974)
(205.278 45.0086 0.00585923)
(229.98 52.4768 23.4421)
(229.981 51.6527 17.0381)
(229.981 50.1429 16.6391)
(229.981 50.2817 25.0116)
(229.981 49.7644 9.68277)
(98.0727 13.9889 0.00182108)
)

start: 
20
(
(15.3854 0.00170995 18.209)
(9.85937 0.00493254 52.5257)
(6.89296 0.006 83.1638)
(15.3998 0.006 91.0993)
(26.2288 0.00313927 33.4295)
(20.1852 0.0059992 63.8843)
(20.1852 0.006 84.2665)
(27.8956 0.006 88.1397)
(34.8881 0.00462887 49.292)
(34.8921 0.00581205 70.6765)
(34.8921 0.00581205 77.755)
(37.0163 0.00118988 12.6708)
(40.4729 0.00393407 41.8932)
(37.9554 0.00550168 58.5864)
(34.8921 0.00581205 91.7434)
(37.9561 0.00572077 84.2668)
(43.5694 0.00555356 81.9028)
(43.0536 0.00556892 90.4559)
(44.9769 0.00551163 74.4537)
(46.0679 0.00170995 18.209)
)

end: 
20
(
(72.7821 17.0978 0.00182108)
(175.426 49.3205 0.0052531)
(208.29 59.994 19.2773)
(216.797 59.994 27.2128)
(131.602 31.3895 0.00334328)
(221.555 59.986 0.00638907)
(221.583 59.994 20.38)
(229.293 59.994 24.2532)
(190.262 46.2841 0.00492969)
(229.98 58.1146 8.79132)
(229.98 58.1146 15.8698)
(76.9561 11.8976 0.00126721)
(172.525 39.3368 0.00418974)
(222.626 55.0113 0.00585922)
(229.98 58.1146 29.8582)
(229.981 57.202 23.3535)
(229.981 55.53 22.7699)
(229.981 55.6837 31.1594)
(229.981 55.1108 15.7673)
(103.465 17.0978 0.00182108)
)

start: 
20
(
(15.3861 0.0020914 18.209)
(9.86114 0.006 52.5258)
(6.89115 0.006 83.165)
(15.398 0.006 91.1005)
(26.23 0.00383955 33.4295)
(20.1834 0.006 63.8855)
(20.1834 0.006 84.2677)
(27.8938 0.006 88.1408)
(34.8899 0.00566144 49.292)
(34.8909 0.006 70.6775)
(34.8909 0.006 77.756)
(37.0167 0.00145531 12.6708)
(40.4744 0.00481165 41.8932)
(37.9552 0.006 58.587)
(34.8909 0.006 91.7444)
(37.9552 0.006 84.2677)
(43.5691 0.006 81.9035)
(43.0532 0.006 90.4566)
(44.9767 0.006 74.4544)
(46.0685 0.0020914 18.209)
)

end: 
20
(
(79.2751 20.9119 0.00182108)
(193.152 59.994 0.291303)
(190.182 59.994 30.9305)
(198.689 59.994 38.866)
(143.522 38.3916 0.00334328)
(203.474 59.994 11.651)
(203.474 59.994 32.0332)
(211.185 59.994 35.9064)
(207.838 56.6087 0.00492969)
(218.182 59.994 18.443)
(218.182 59.994 25.5215)
(81.4743 14.5517 0.00126721)
(187.463 48.1117 0.00418974)
(221.246 59.994 6.35255)
(218.182 59.994 39.5099)
(221.246 59.994 32.0332)
(226.86 59.994 29.6691)
(226.344 59.994 38.2221)
(228.268 59.994 22.2199)
(109.958 20.9119 0.00182108)
)

start: 
20
(
(15.3869 0.00256939 18.209)
(9.8596 0.006 52.5267)
(6.88961 0.006 83.1659)
(15.3965 0.006 91.1014)
(26.2315 0.00471709 33.4295)
(20.1818 0.006 63.8864)
(20.1818 0.006 84.2686)
(27.8922 0.006 88.1418)
(34.8894 0.006 49.2926)
(34.8894 0.006 70.6784)
(34.8894 0.006 77.7569)
(37.0173 0.00178793 12.6708)
(40.4762 0.00591137 41.8932)
(37.9537 0.006 58.588)
(34.8894 0.006 91.7453)
(37.9537 0.006 84.2686)
(43.5675 0.006 81.9045)
(43.0517 0.006 90.4575)
(44.9752 0.006 74.4553)
(46.0693 0.00256939 18.209)
)

end: 
20
(
(87.2746 25.6913 0.00182108)
(177.731 59.994 10.0097)
(174.761 59.994 40.6489)
(183.267 59.994 48.5844)
(158.208 47.1662 0.00334328)
(188.053 59.994 21.3694)
(188.053 59.994 41.7516)
(195.763 59.994 45.6247)
(202.76 59.994 6.77559)
(202.76 59.994 28.1614)
(202.76 59.994 35.2399)
(87.0408 17.8775 0.00126721)
(205.867 59.1078 0.00418974)
(205.825 59.994 16.0709)
(202.76 59.994 49.2283)
(205.825 59.994 41.7516)
(211.438 59.994 39.3874)
(210.923 59.994 47.9405)
(212.846 59.994 31.9383)
(117.957 25.6913 0.00182108)
)

start: 
20
(
(15.3879 0.00318457 18.209)
(9.85827 0.006 52.5276)
(6.88828 0.006 83.1668)
(15.3952 0.006 91.1023)
(26.2334 0.00584648 33.4295)
(20.1805 0.006 63.8873)
(20.1805 0.006 84.2695)
(27.8909 0.006 88.1426)
(34.8881 0.006 49.2935)
(34.8881 0.006 70.6793)
(34.8881 0.006 77.7578)
(37.018 0.002216 12.6708)
(40.4752 0.006 41.894)
(37.9524 0.006 58.5888)
(34.8881 0.006 91.7462)
(37.9524 0.006 84.2695)
(43.5662 0.006 81.9053)
(43.0504 0.006 90.4584)
(44.9739 0.006 74.4562)
(46.0704 0.00318457 18.209)
)

end: 
20
(
(97.4129 31.8425 0.00182108)
(164.4 59.994 18.2237)
(161.43 59.994 48.8629)
(169.937 59.994 56.7984)
(176.821 58.4589 0.00334328)
(174.723 59.994 29.5834)
(174.723 59.994 49.9656)
(182.433 59.994 53.8388)
(189.43 59.994 14.9896)
(189.43 59.994 36.3754)
(189.43 59.994 43.4539)
(94.0956 22.1578 0.00126721)
(195.017 59.994 7.59012)
(192.494 59.994 24.285)
(189.43 59.994 57.4423)
(192.494 59.994 49.9656)
(198.108 59.994 47.6015)
(197.592 59.994 56.1545)
(199.516 59.994 40.1523)
(128.095 31.8425 0.00182108)
)

start: 
20
(
(15.3892 0.00400404 18.209)
(9.8571 0.006 52.5283)
(6.88711 0.006 83.1675)
(15.394 0.006 91.103)
(26.2326 0.006 33.4301)
(20.1793 0.006 63.888)
(20.1793 0.006 84.2702)
(27.8897 0.006 88.1433)
(34.8869 0.006 49.2942)
(34.8869 0.006 70.68)
(34.8869 0.006 77.7585)
(37.0189 0.00278624 12.6708)
(40.474 0.006 41.8947)
(37.9512 0.006 58.5895)
(34.8869 0.006 91.7469)
(37.9512 0.006 84.2702)
(43.565 0.006 81.906)
(43.0492 0.006 90.4591)
(44.9727 0.006 74.4569)
(46.0717 0.00400404 18.209)
)

end: 
20
(
(110.734 40.0364 0.00182108)
(152.73 59.994 25.2451)
(149.76 59.994 55.8843)
(158.267 59.994 63.8198)
(169.106 59.994 6.14688)
(163.052 59.994 36.6048)
(163.052 59.994 56.987)
(170.763 59.994 60.8601)
(177.76 59.994 22.011)
(177.76 59.994 43.3968)
(177.76 59.994 50.4753)
(103.365 27.8596 0.00126721)
(183.347 59.994 14.6115)
(180.824 59.994 31.3063)
(177.76 59.994 64.4637)
(180.824 59.994 56.987)
(186.438 59.994 54.6228)
(185.922 59.994 63.1759)
(187.846 59.994 47.1737)
(141.417 40.0364 0.00182108)
)

start: 
20
(
(15.3911 0.00514715 18.209)
(9.85607 0.006 52.5289)
(6.88608 0.006 83.1681)
(15.393 0.006 91.1036)
(26.2316 0.006 33.4307)
(20.1783 0.006 63.8886)
(20.1783 0.006 84.2708)
(27.8887 0.006 88.1439)
(34.8859 0.006 49.2948)
(34.8859 0.006 70.6806)
(34.8859 0.006 77.7591)
(37.0202 0.00358168 12.6708)
(40.473 0.006 41.8953)
(37.9502 0.006 58.5901)
(34.8859 0.006 91.7475)
(37.9502 0.006 84.2708)
(43.564 0.006 81.9066)
(43.0482 0.006 90.4597)
(44.9717 0.006 74.4575)
(46.0735 0.00514715 18.209)
)

end: 
20
(
(129.095 51.4664 0.00182108)
(142.399 59.994 31.3049)
(139.429 59.994 61.9441)
(147.936 59.994 69.8796)
(158.775 59.994 12.2067)
(152.722 59.994 42.6646)
(152.722 59.994 63.0468)
(160.432 59.994 66.92)
(167.429 59.994 28.0708)
(167.429 59.994 49.4566)
(167.429 59.994 56.5351)
(116.142 35.8132 0.00126721)
(173.016 59.994 20.6713)
(170.494 59.994 37.3662)
(167.429 59.994 70.5235)
(170.494 59.994 63.0468)
(176.107 59.994 60.6827)
(175.592 59.994 69.2357)
(177.515 59.994 53.2335)
(159.777 51.4664 0.00182108)
)

start: 
20
(
(15.392 0.006 18.2092)
(9.85514 0.006 52.5294)
(6.88515 0.006 83.1686)
(15.392 0.006 91.1041)
(26.2306 0.006 33.4312)
(20.1774 0.006 63.8891)
(20.1774 0.006 84.2713)
(27.8878 0.006 88.1445)
(34.8849 0.006 49.2953)
(34.8849 0.006 70.6811)
(34.8849 0.006 77.7596)
(37.0221 0.00476566 12.6708)
(40.472 0.006 41.8958)
(37.9492 0.006 58.5907)
(34.8849 0.006 91.748)
(37.9492 0.006 84.2713)
(43.5631 0.006 81.9072)
(43.0472 0.006 90.4602)
(44.9707 0.006 74.458)
(46.0745 0.006 18.2092)
)

end: 
20
(
(138.702 59.994 2.25812)
(133.165 59.994 36.5783)
(130.195 59.994 67.2175)
(138.702 59.994 75.153)
(149.541 59.994 17.4801)
(143.487 59.994 47.938)
(143.487 59.994 68.3202)
(151.198 59.994 72.1934)
(158.195 59.994 33.3442)
(158.195 59.994 54.73)
(158.195 59.994 61.8085)
(134.964 47.6518 0.00126721)
(163.782 59.994 25.9447)
(161.259 59.994 42.6396)
(158.195 59.994 75.7969)
(161.259 59.994 68.3202)
(166.873 59.994 65.9561)
(166.357 59.994 74.5091)
(168.281 59.994 58.5069)
(169.384 59.994 2.25812)
)

start: 
20
(
(15.3912 0.006 18.2097)
(9.85431 0.006 52.5299)
(6.88432 0.006 83.1691)
(15.3912 0.006 91.1046)
(26.2298 0.006 33.4317)
(20.1766 0.006 63.8896)
(20.1766 0.006 84.2718)
(27.887 0.006 88.1449)
(34.8841 0.006 49.2958)
(34.8841 0.006 70.6816)
(34.8841 0.006 77.7601)
(37.0238 0.006 12.671)
(40.4712 0.006 41.8963)
(37.9484 0.006 58.5911)
(34.8841 0.006 91.7485)
(37.9484 0.006 84.2718)
(43.5623 0.006 81.9076)
(43.0464 0.006 90.4607)
(44.9699 0.006 74.4585)
(46.0737 0.006 18.2097)
)

end: 
20
(
(130.376 59.994 6.88001)
(124.839 59.994 41.2002)
(121.869 59.994 71.8394)
(130.376 59.994 79.7749)
(141.215 59.994 22.102)
(135.162 59.994 52.5599)
(135.162 59.994 72.9421)
(142.872 59.994 76.8153)
(149.869 59.994 37.9661)
(149.869 59.994 59.3519)
(149.869 59.994 66.4304)
(152.009 59.994 1.34131)
(155.456 59.994 30.5666)
(152.933 59.994 47.2615)
(149.869 59.994 80.4188)
(152.933 59.994 72.9421)
(158.547 59.994 70.578)
(158.031 59.994 79.131)
(159.955 59.994 63.1288)
(161.059 59.994 6.88001)
)

start: 
20
(
(15.3904 0.006 18.2101)
(9.85355 0.006 52.5303)
(6.88356 0.006 83.1695)
(15.3904 0.006 91.105)
(26.229 0.006 33.4321)
(20.1758 0.006 63.89)
(20.1758 0.006 84.2722)
(27.8862 0.006 88.1453)
(34.8833 0.006 49.2962)
(34.8833 0.006 70.682)
(34.8833 0.006 77.7605)
(37.023 0.006 12.6714)
(40.4704 0.006 41.8967)
(37.9476 0.006 58.5915)
(34.8833 0.006 91.7489)
(37.9476 0.006 84.2722)
(43.5615 0.006 81.908)
(43.0456 0.006 90.4611)
(44.9691 0.006 74.4589)
(46.0729 0.006 18.2101)
)

end: 
20
(
(122.811 59.994 10.956)
(117.275 59.994 45.2762)
(114.305 59.994 75.9154)
(122.811 59.994 83.8509)
(133.65 59.994 26.178)
(127.597 59.994 56.6359)
(127.597 59.994 77.0181)
(135.307 59.994 80.8913)
(142.304 59.994 42.0421)
(142.304 59.994 63.4279)
(142.304 59.994 70.5064)
(144.444 59.994 5.41735)
(147.891 59.994 34.6426)
(145.369 59.994 51.3375)
(142.304 59.994 84.4948)
(145.369 59.994 77.0181)
(150.983 59.994 74.654)
(150.467 59.994 83.207)
(152.39 59.994 67.2048)
(153.494 59.994 10.956)
)

start: 
20
(
(15.3898 0.006 18.2104)
(9.85286 0.006 52.5306)
(6.88287 0.006 83.1698)
(15.3898 0.006 91.1053)
(26.2284 0.006 33.4324)
(20.1751 0.006 63.8903)
(20.1751 0.006 84.2725)
(27.8855 0.006 88.1457)
(34.8827 0.006 49.2965)
(34.8827 0.006 70.6823)
(34.8827 0.006 77.7608)
(37.0224 0.006 12.6717)
(40.4698 0.006 41.897)
(37.947 0.006 58.5919)
(34.8827 0.006 91.7492)
(37.947 0.006 84.2725)
(43.5608 0.006 81.9084)
(43.045 0.006 90.4614)
(44.9685 0.006 74.4592)
(46.0722 0.006 18.2104)
)

end: 
20
(
(115.89 59.994 14.5701)
(110.353 59.994 48.8903)
(107.383 59.994 79.5295)
(115.89 59.994 87.465)
(126.729 59.994 29.7921)
(120.676 59.994 60.25)
(120.676 59.994 80.6322)
(128.386 59.994 84.5054)
(135.383 59.994 45.6562)
(135.383 59.994 67.042)
(135.383 59.994 74.1205)
(137.523 59.994 9.03144)
(140.97 59.994 38.2567)
(138.447 59.994 54.9516)
(135.383 59.994 88.1089)
(138.447 59.994 80.6322)
(144.061 59.994 78.2681)
(143.545 59.994 86.8211)
(145.469 59.994 70.8189)
(146.573 59.994 14.5701)
)

start: 
20
(
(15.3891 0.006 18.2108)
(9.85222 0.006 52.531)
(6.88223 0.006 83.1702)
(15.3891 0.006 91.1057)
(26.2277 0.006 33.4328)
(20.1745 0.006 63.8907)
(20.1745 0.006 84.2729)
(27.8849 0.006 88.146)
(34.882 0.006 49.2969)
(34.882 0.006 70.6827)
(34.882 0.006 77.7612)
(37.0217 0.006 12.6721)
(40.4691 0.006 41.8974)
(37.9463 0.006 58.5922)
(34.882 0.006 91.7496)
(37.9463 0.006 84.2729)
(43.5602 0.006 81.9087)
(43.0443 0.006 90.4618)
(44.9678 0.006 74.4596)
(46.0716 0.006 18.2108)
)

end: 
20
(
(109.518 59.994 17.7897)
(103.981 59.994 52.1099)
(101.011 59.994 82.7491)
(109.518 59.994 90.6846)
(120.357 59.994 33.0117)
(114.303 59.994 63.4696)
(114.303 59.994 83.8518)
(122.014 59.994 87.725)
(129.011 59.994 48.8758)
(129.011 59.994 70.2616)
(129.011 59.994 77.3401)
(131.151 59.994 12.251)
(134.598 59.994 41.4763)
(132.075 59.994 58.1712)
(129.011 59.994 91.3285)
(132.075 59.994 83.8518)
(137.689 59.994 81.4877)
(137.173 59.994 90.0407)
(139.097 59.994 74.0385)
(140.2 59.994 17.7897)
)

start: 
20
(
(15.3885 0.006 18.211)
(9.85163 0.006 52.5312)
(6.88164 0.006 83.1704)
(15.3885 0.006 91.1059)
(26.2271 0.006 33.433)
(20.1739 0.006 63.8909)
(20.1739 0.006 84.2731)
(27.8843 0.006 88.1463)
(34.8814 0.006 49.2971)
(34.8814 0.006 70.6829)
(34.8814 0.006 77.7614)
(37.0211 0.006 12.6723)
(40.4685 0.006 41.8976)
(37.9457 0.006 58.5925)
(34.8814 0.006 91.7498)
(37.9457 0.006 84.2731)
(43.5596 0.006 81.909)
(43.0437 0.006 90.462)
(44.9672 0.006 74.4598)
(46.071 0.006 18.211)
)

end: 
20
(
(103.617 59.994 20.6695)
(98.0803 59.994 54.9897)
(95.1103 59.994 85.6289)
(103.617 59.994 93.5644)
(114.456 59.994 35.8915)
(108.403 59.994 66.3494)
(108.403 59.994 86.7316)
(116.113 59.994 90.6048)
(123.11 59.994 51.7556)
(123.11 59.994 73.1414)
(123.11 59.994 80.2199)
(125.25 59.994 15.1308)
(128.697 59.994 44.3561)
(126.174 59.994 61.051)
(123.11 59.994 94.2083)
(126.174 59.994 86.7316)
(131.788 59.994 84.3675)
(131.272 59.994 92.9205)
(133.196 59.994 76.9183)
(134.3 59.994 20.6695)
)

start: 
20
(
(15.388 0.006 18.2113)
(9.85109 0.006 52.5315)
(6.8811 0.006 83.1707)
(15.388 0.006 91.1062)
(26.2266 0.006 33.4333)
(20.1733 0.006 63.8912)
(20.1733 0.006 84.2734)
(27.8837 0.006 88.1466)
(34.8809 0.006 49.2974)
(34.8809 0.006 70.6832)
(34.8809 0.006 77.7617)
(37.0206 0.006 12.6726)
(40.468 0.006 41.8979)
(37.9452 0.006 58.5928)
(34.8809 0.006 91.7501)
(37.9452 0.006 84.2734)
(43.559 0.006 81.9093)
(43.0432 0.006 90.4623)
(44.9667 0.006 74.4601)
(46.0704 0.006 18.2113)
)

end: 
20
(
(98.1242 59.994 23.2546)
(92.5873 59.994 57.5748)
(89.6173 59.994 88.214)
(98.1242 59.994 96.1495)
(108.963 59.994 38.4766)
(102.91 59.994 68.9345)
(102.91 59.994 89.3167)
(110.62 59.994 93.1898)
(117.617 59.994 54.3407)
(117.617 59.994 75.7265)
(117.617 59.994 82.805)
(119.757 59.994 17.7159)
(123.204 59.994 46.9412)
(120.681 59.994 63.636)
(117.617 59.994 96.7934)
(120.681 59.994 89.3167)
(126.295 59.994 86.9525)
(125.779 59.994 95.5056)
(127.703 59.994 79.5034)
(128.807 59.994 23.2546)
)

start: 
20
(
(15.3875 0.006 18.2115)
(9.85057 0.006 52.5317)
(6.88058 0.006 83.1709)
(15.3875 0.006 91.1064)
(26.2261 0.006 33.4335)
(20.1728 0.006 63.8914)
(20.1728 0.006 84.2736)
(27.8832 0.006 88.1468)
(34.8804 0.006 49.2976)
(34.8804 0.006 70.6834)
(34.8804 0.006 77.7619)
(37.0201 0.006 12.6728)
(40.4675 0.006 41.8981)
(37.9447 0.006 58.593)
(34.8804 0.006 91.7503)
(37.9447 0.006 84.2736)
(43.5585 0.006 81.9095)
(43.0427 0.006 90.4625)
(44.9662 0.006 74.4603)
(46.0699 0.006 18.2115)
)

end: 
20
(
(92.9859 59.994 25.582)
(87.449 59.994 59.9022)
(84.4791 59.994 90.5414)
(92.9859 59.994 98.4769)
(103.825 59.994 40.804)
(97.7713 59.994 71.2619)
(97.7713 59.994 91.6441)
(105.482 59.994 95.5173)
(112.479 59.994 56.6681)
(112.479 59.994 78.0539)
(112.479 59.994 85.1324)
(114.619 59.994 20.0433)
(118.066 59.994 49.2686)
(115.543 59.994 65.9635)
(112.479 59.994 99.1208)
(115.543 59.994 91.6441)
(121.157 59.994 89.28)
(120.641 59.994 97.833)
(122.565 59.994 81.8308)
(123.668 59.994 25.582)
)

start: 
20
(
(15.387 0.006 18.2117)
(9.85009 0.006 52.5319)
(6.8801 0.006 83.1711)
(15.387 0.006 91.1066)
(26.2256 0.006 33.4337)
(20.1723 0.006 63.8916)
(20.1723 0.006 84.2738)
(27.8827 0.006 88.147)
(34.8799 0.006 49.2978)
(34.8799 0.006 70.6836)
(34.8799 0.006 77.7621)
(37.0196 0.006 12.673)
(40.467 0.006 41.8983)
(37.9442 0.006 58.5932)
(34.8799 0.006 91.7505)
(37.9442 0.006 84.2738)
(43.558 0.006 81.9097)
(43.0422 0.006 90.4627)
(44.9657 0.006 74.4605)
(46.0694 0.006 18.2117)
)

end: 
20
(
(88.1578 59.994 27.6829)
(82.6209 59.994 62.0031)
(79.6509 59.994 92.6423)
(88.1578 59.994 100.578)
(98.9964 59.994 42.9049)
(92.9431 59.994 73.3628)
(92.9431 59.994 93.745)
(100.654 59.994 97.6182)
(107.651 59.994 58.769)
(107.651 59.994 80.1548)
(107.651 59.994 87.2333)
(109.79 59.994 22.1442)
(113.238 59.994 51.3695)
(110.715 59.994 68.0644)
(107.651 59.994 101.222)
(110.715 59.994 93.745)
(116.329 59.994 91.3809)
(115.813 59.994 99.9339)
(117.736 59.994 83.9317)
(118.84 59.994 27.6829)
)

start: 
20
(
(15.3865 0.006 18.2119)
(9.84963 0.006 52.5321)
(6.87964 0.006 83.1713)
(15.3865 0.006 91.1068)
(26.2251 0.006 33.4339)
(20.1719 0.006 63.8918)
(20.1719 0.006 84.274)
(27.8823 0.006 88.1472)
(34.8794 0.006 49.298)
(34.8794 0.006 70.6838)
(34.8794 0.006 77.7623)
(37.0191 0.006 12.6732)
(40.4665 0.006 41.8985)
(37.9437 0.006 58.5934)
(34.8794 0.006 91.7507)
(37.9437 0.006 84.274)
(43.5576 0.006 81.9099)
(43.0417 0.006 90.4629)
(44.9652 0.006 74.4607)
(46.069 0.006 18.2119)
)

end: 
20
(
(83.602 59.994 29.5834)
(78.0651 59.994 63.9036)
(75.0951 59.994 94.5428)
(83.602 59.994 102.478)
(94.4406 59.994 44.8054)
(88.3873 59.994 75.2633)
(88.3873 59.994 95.6455)
(96.0977 59.994 99.5186)
(103.095 59.994 60.6695)
(103.095 59.994 82.0553)
(103.095 59.994 89.1338)
(105.235 59.994 24.0447)
(108.682 59.994 53.27)
(106.159 59.994 69.9648)
(103.095 59.994 103.122)
(106.159 59.994 95.6455)
(111.773 59.994 93.2813)
(111.257 59.994 101.834)
(113.181 59.994 85.8322)
(114.284 59.994 29.5834)
)

start: 
20
(
(15.3861 0.006 18.2121)
(9.8492 0.006 52.5323)
(6.87921 0.006 83.1715)
(15.3861 0.006 91.107)
(26.2247 0.006 33.4341)
(20.1714 0.006 63.892)
(20.1714 0.006 84.2742)
(27.8818 0.006 88.1474)
(34.879 0.006 49.2982)
(34.879 0.006 70.684)
(34.879 0.006 77.7625)
(37.0187 0.006 12.6734)
(40.4661 0.006 41.8987)
(37.9433 0.006 58.5936)
(34.879 0.006 91.7509)
(37.9433 0.006 84.2742)
(43.5571 0.006 81.9101)
(43.0413 0.006 90.4631)
(44.9648 0.006 74.4609)
(46.0685 0.006 18.2121)
)

end: 
20
(
(79.2863 59.994 31.3053)
(73.7494 59.994 65.6255)
(70.7794 59.994 96.2647)
(79.2863 59.994 104.2)
(90.1249 59.994 46.5273)
(84.0717 59.994 76.9852)
(84.0717 59.994 97.3674)
(91.7821 59.994 101.241)
(98.7792 59.994 62.3914)
(98.7792 59.994 83.7772)
(98.7792 59.994 90.8557)
(100.919 59.994 25.7666)
(104.366 59.994 54.9919)
(101.844 59.994 71.6868)
(98.7792 59.994 104.844)
(101.844 59.994 97.3674)
(107.457 59.994 95.0033)
(106.942 59.994 103.556)
(108.865 59.994 87.5541)
(109.969 59.994 31.3053)
)

start: 
20
(
(15.3857 0.006 18.2123)
(9.84879 0.006 52.5325)
(6.8788 0.006 83.1717)
(15.3857 0.006 91.1072)
(26.2243 0.006 33.4343)
(20.171 0.006 63.8922)
(20.171 0.006 84.2744)
(27.8814 0.006 88.1475)
(34.8786 0.006 49.2984)
(34.8786 0.006 70.6842)
(34.8786 0.006 77.7627)
(37.0183 0.006 12.6736)
(40.4657 0.006 41.8989)
(37.9429 0.006 58.5937)
(34.8786 0.006 91.7511)
(37.9429 0.006 84.2744)
(43.5567 0.006 81.9102)
(43.0409 0.006 90.4633)
(44.9644 0.006 74.4611)
(46.0681 0.006 18.2123)
)

end: 
20
(
(75.1831 59.994 32.8676)
(69.6462 59.994 67.1878)
(66.6762 59.994 97.827)
(75.1831 59.994 105.763)
(86.0217 59.994 48.0896)
(79.9685 59.994 78.5475)
(79.9685 59.994 98.9297)
(87.6789 59.994 102.803)
(94.676 59.994 63.9537)
(94.676 59.994 85.3395)
(94.676 59.994 92.418)
(96.8157 59.994 27.3289)
(100.263 59.994 56.5542)
(97.7403 59.994 73.2491)
(94.676 59.994 106.406)
(97.7403 59.994 98.9297)
(103.354 59.994 96.5656)
(102.838 59.994 105.119)
(104.762 59.994 89.1164)
(105.866 59.994 32.8676)
)

start: 
20
(
(15.3853 0.006 18.2124)
(9.8484 0.006 52.5326)
(6.87841 0.006 83.1718)
(15.3853 0.006 91.1073)
(26.2239 0.006 33.4344)
(20.1706 0.006 63.8923)
(20.1706 0.006 84.2745)
(27.881 0.006 88.1477)
(34.8782 0.006 49.2985)
(34.8782 0.006 70.6843)
(34.8782 0.006 77.7628)
(37.0179 0.006 12.6737)
(40.4653 0.006 41.899)
(37.9425 0.006 58.5939)
(34.8782 0.006 91.7512)
(37.9425 0.006 84.2745)
(43.5563 0.006 81.9104)
(43.0405 0.006 90.4634)
(44.964 0.006 74.4612)
(46.0677 0.006 18.2124)
)

end: 
20
(
(71.2684 59.994 34.2862)
(65.7315 59.994 68.6064)
(62.7615 59.994 99.2456)
(71.2684 59.994 107.181)
(82.107 59.994 49.5082)
(76.0537 59.994 79.9661)
(76.0537 59.994 100.348)
(83.7641 59.994 104.221)
(90.7613 59.994 65.3723)
(90.7613 59.994 86.7581)
(90.7613 59.994 93.8366)
(92.901 59.994 28.7475)
(96.3484 59.994 57.9728)
(93.8256 59.994 74.6677)
(90.7613 59.994 107.825)
(93.8256 59.994 100.348)
(99.4394 59.994 97.9842)
(98.9236 59.994 106.537)
(100.847 59.994 90.535)
(101.951 59.994 34.2862)
)

start: 
20
(
(15.3849 0.006 18.2125)
(9.84802 0.006 52.5327)
(6.87803 0.006 83.1719)
(15.3849 0.006 91.1074)
(26.2235 0.006 33.4345)
(20.1703 0.006 63.8924)
(20.1703 0.006 84.2746)
(27.8807 0.006 88.1478)
(34.8778 0.006 49.2986)
(34.8778 0.006 70.6844)
(34.8778 0.006 77.7629)
(37.0175 0.006 12.6738)
(40.4649 0.006 41.8991)
(37.9421 0.006 58.594)
(34.8778 0.006 91.7513)
(37.9421 0.006 84.2746)
(43.556 0.006 81.9105)
(43.0401 0.006 90.4635)
(44.9636 0.006 74.4613)
(46.0674 0.006 18.2125)
)

end: 
20
(
(67.5212 59.994 35.5749)
(61.9843 59.994 69.8951)
(59.0143 59.994 100.534)
(67.5212 59.994 108.47)
(78.3598 59.994 50.7969)
(72.3066 59.994 81.2548)
(72.3066 59.994 101.637)
(80.017 59.994 105.51)
(87.0141 59.994 66.661)
(87.0141 59.994 88.0468)
(87.0141 59.994 95.1253)
(89.1538 59.994 30.0362)
(92.6012 59.994 59.2615)
(90.0784 59.994 75.9564)
(87.0141 59.994 109.114)
(90.0784 59.994 101.637)
(95.6923 59.994 99.2729)
(95.1764 59.994 107.826)
(97.0999 59.994 91.8237)
(98.2037 59.994 35.5749)
)

start: 
20
(
(15.3846 0.006 18.2127)
(9.84766 0.006 52.5329)
(6.87767 0.006 83.1721)
(15.3846 0.006 91.1076)
(26.2232 0.006 33.4347)
(20.1699 0.006 63.8926)
(20.1699 0.006 84.2748)
(27.8803 0.006 88.1479)
(34.8775 0.006 49.2988)
(34.8775 0.006 70.6846)
(34.8775 0.006 77.7631)
(37.0172 0.006 12.674)
(40.4646 0.006 41.8993)
(37.9418 0.006 58.5941)
(34.8775 0.006 91.7515)
(37.9418 0.006 84.2748)
(43.5556 0.006 81.9106)
(43.0398 0.006 90.4637)
(44.9633 0.006 74.4615)
(46.067 0.006 18.2127)
)

end: 
20
(
(63.9233 59.994 36.7455)
(58.3865 59.994 71.0657)
(55.4165 59.994 101.705)
(63.9233 59.994 109.64)
(74.7619 59.994 51.9675)
(68.7087 59.994 82.4254)
(68.7087 59.994 102.808)
(76.4191 59.994 106.681)
(83.4162 59.994 67.8316)
(83.4162 59.994 89.2174)
(83.4162 59.994 96.2959)
(85.5559 59.994 31.2068)
(89.0033 59.994 60.4321)
(86.4805 59.994 77.127)
(83.4162 59.994 110.284)
(86.4805 59.994 102.808)
(92.0944 59.994 100.443)
(91.5785 59.994 108.997)
(93.502 59.994 92.9943)
(94.6058 59.994 36.7455)
)

start: 
20
(
(15.3842 0.006 18.2128)
(9.84732 0.006 52.533)
(6.87733 0.006 83.1722)
(15.3842 0.006 91.1077)
(26.2228 0.006 33.4348)
(20.1696 0.006 63.8927)
(20.1696 0.006 84.2749)
(27.88 0.006 88.148)
(34.8771 0.006 49.2989)
(34.8771 0.006 70.6847)
(34.8771 0.006 77.7632)
(37.0168 0.006 12.6741)
(40.4642 0.006 41.8994)
(37.9414 0.006 58.5942)
(34.8771 0.006 91.7516)
(37.9414 0.006 84.2749)
(43.5553 0.006 81.9107)
(43.0394 0.006 90.4638)
(44.9629 0.006 74.4616)
(46.0667 0.006 18.2128)
)

end: 
20
(
(60.4586 59.994 37.8083)
(54.9217 59.994 72.1285)
(51.9517 59.994 102.768)
(60.4586 59.994 110.703)
(71.2972 59.994 53.0303)
(65.2439 59.994 83.4882)
(65.2439 59.994 103.87)
(72.9543 59.994 107.744)
(79.9515 59.994 68.8944)
(79.9515 59.994 90.2802)
(79.9515 59.994 97.3587)
(82.0912 59.994 32.2696)
(85.5386 59.994 61.4949)
(83.0158 59.994 78.1897)
(79.9515 59.994 111.347)
(83.0158 59.994 103.87)
(88.6296 59.994 101.506)
(88.1138 59.994 110.059)
(90.0373 59.994 94.0571)
(91.141 59.994 37.8083)
)

start: 
20
(
(15.3839 0.006 18.2129)
(9.84698 0.006 52.5331)
(6.87699 0.006 83.1723)
(15.3839 0.006 91.1078)
(26.2225 0.006 33.4349)
(20.1692 0.006 63.8928)
(20.1692 0.006 84.275)
(27.8796 0.006 88.1481)
(34.8768 0.006 49.299)
(34.8768 0.006 70.6848)
(34.8768 0.006 77.7633)
(37.0165 0.006 12.6742)
(40.4639 0.006 41.8995)
(37.9411 0.006 58.5943)
(34.8768 0.006 91.7517)
(37.9411 0.006 84.275)
(43.5549 0.006 81.9108)
(43.0391 0.006 90.4639)
(44.9626 0.006 74.4617)
(46.0663 0.006 18.2129)
)

end: 
20
(
(57.1126 59.994 38.7721)
(51.5757 59.994 73.0923)
(48.6057 59.994 103.731)
(57.1126 59.994 111.667)
(67.9512 59.994 53.9941)
(61.898 59.994 84.452)
(61.898 59.994 104.834)
(69.6084 59.994 108.707)
(76.6055 59.994 69.8582)
(76.6055 59.994 91.244)
(76.6055 59.994 98.3225)
(78.7452 59.994 33.2334)
(82.1926 59.994 62.4587)
(79.6698 59.994 79.1535)
(76.6055 59.994 112.311)
(79.6698 59.994 104.834)
(85.2837 59.994 102.47)
(84.7678 59.994 111.023)
(86.6913 59.994 95.0209)
(87.7951 59.994 38.7721)
)

start: 
20
(
(15.3835 0.006 18.2129)
(9.84666 0.006 52.5331)
(6.87667 0.006 83.1723)
(15.3835 0.006 91.1078)
(26.2221 0.006 33.4349)
(20.1689 0.006 63.8928)
(20.1689 0.006 84.275)
(27.8793 0.006 88.1482)
(34.8764 0.006 49.299)
(34.8764 0.006 70.6848)
(34.8764 0.006 77.7633)
(37.0161 0.006 12.6742)
(40.4635 0.006 41.8995)
(37.9407 0.006 58.5944)
(34.8764 0.006 91.7517)
(37.9407 0.006 84.275)
(43.5546 0.006 81.9109)
(43.0387 0.006 90.4639)
(44.9622 0.006 74.4617)
(46.066 0.006 18.2129)
)

end: 
20
(
(53.8726 59.994 39.6446)
(48.3357 59.994 73.9648)
(45.3657 59.994 104.604)
(53.8726 59.994 112.54)
(64.7112 59.994 54.8666)
(58.658 59.994 85.3245)
(58.658 59.994 105.707)
(66.3684 59.994 109.58)
(73.3655 59.994 70.7307)
(73.3655 59.994 92.1165)
(73.3655 59.994 99.195)
(75.5052 59.994 34.1059)
(78.9526 59.994 63.3312)
(76.4298 59.994 80.0261)
(73.3655 59.994 113.183)
(76.4298 59.994 105.707)
(82.0437 59.994 103.343)
(81.5278 59.994 111.896)
(83.4513 59.994 95.8934)
(84.5551 59.994 39.6446)
)

start: 
20
(
(15.3832 0.006 18.213)
(9.84635 0.006 52.5332)
(6.87636 0.006 83.1724)
(15.3832 0.006 91.1079)
(26.2218 0.006 33.435)
(20.1686 0.006 63.8929)
(20.1686 0.006 84.2751)
(27.879 0.006 88.1483)
(34.8761 0.006 49.2991)
(34.8761 0.006 70.6849)
(34.8761 0.006 77.7634)
(37.0158 0.006 12.6743)
(40.4632 0.006 41.8996)
(37.9404 0.006 58.5945)
(34.8761 0.006 91.7518)
(37.9404 0.006 84.2751)
(43.5543 0.006 81.911)
(43.0384 0.006 90.464)
(44.9619 0.006 74.4618)
(46.0657 0.006 18.213)
)

end: 
20
(
(50.7271 59.994 40.4327)
(45.1902 59.994 74.7529)
(42.2202 59.994 105.392)
(50.7271 59.994 113.328)
(61.5657 59.994 55.6547)
(55.5125 59.994 86.1126)
(55.5125 59.994 106.495)
(63.2229 59.994 110.368)
(70.22 59.994 71.5188)
(70.22 59.994 92.9046)
(70.22 59.994 99.9831)
(72.3597 59.994 34.894)
(75.8071 59.994 64.1193)
(73.2843 59.994 80.8141)
(70.22 59.994 113.971)
(73.2843 59.994 106.495)
(78.8982 59.994 104.131)
(78.3823 59.994 112.684)
(80.3058 59.994 96.6815)
(81.4096 59.994 40.4327)
)

start: 
20
(
(15.3829 0.006 18.2131)
(9.84604 0.006 52.5333)
(6.87605 0.006 83.1725)
(15.3829 0.006 91.108)
(26.2215 0.006 33.4351)
(20.1683 0.006 63.893)
(20.1683 0.006 84.2752)
(27.8787 0.006 88.1483)
(34.8758 0.006 49.2992)
(34.8758 0.006 70.685)
(34.8758 0.006 77.7635)
(37.0155 0.006 12.6744)
(40.4629 0.006 41.8997)
(37.9401 0.006 58.5945)
(34.8758 0.006 91.7519)
(37.9401 0.006 84.2752)
(43.554 0.006 81.911)
(43.0381 0.006 90.4641)
(44.9616 0.006 74.4619)
(46.0654 0.006 18.2131)
)

end: 
20
(
(47.6657 59.994 41.142)
(42.1288 59.994 75.4622)
(39.1588 59.994 106.101)
(47.6657 59.994 114.037)
(58.5043 59.994 56.364)
(52.451 59.994 86.8219)
(52.451 59.994 107.204)
(60.1614 59.994 111.077)
(67.1586 59.994 72.2281)
(67.1586 59.994 93.6139)
(67.1586 59.994 100.692)
(69.2983 59.994 35.6033)
(72.7457 59.994 64.8286)
(70.2229 59.994 81.5234)
(67.1586 59.994 114.681)
(70.2229 59.994 107.204)
(75.8367 59.994 104.84)
(75.3209 59.994 113.393)
(77.2444 59.994 97.3908)
(78.3481 59.994 41.142)
)

start: 
20
(
(15.3826 0.006 18.2132)
(9.84574 0.006 52.5334)
(6.87575 0.006 83.1726)
(15.3826 0.006 91.1081)
(26.2212 0.006 33.4352)
(20.168 0.006 63.8931)
(20.168 0.006 84.2753)
(27.8784 0.006 88.1484)
(34.8755 0.006 49.2993)
(34.8755 0.006 70.6851)
(34.8755 0.006 77.7636)
(37.0152 0.006 12.6745)
(40.4626 0.006 41.8998)
(37.9398 0.006 58.5946)
(34.8755 0.006 91.752)
(37.9398 0.006 84.2753)
(43.5537 0.006 81.9111)
(43.0378 0.006 90.4642)
(44.9613 0.006 74.462)
(46.0651 0.006 18.2132)
)

end: 
20
(
(44.6789 59.994 41.7777)
(39.142 59.994 76.0979)
(36.172 59.994 106.737)
(44.6789 59.994 114.673)
(55.5175 59.994 56.9997)
(49.4643 59.994 87.4576)
(49.4643 59.994 107.84)
(57.1747 59.994 111.713)
(64.1718 59.994 72.8638)
(64.1718 59.994 94.2496)
(64.1718 59.994 101.328)
(66.3115 59.994 36.239)
(69.7589 59.994 65.4643)
(67.2361 59.994 82.1591)
(64.1718 59.994 115.316)
(67.2361 59.994 107.84)
(72.85 59.994 105.476)
(72.3341 59.994 114.029)
(74.2576 59.994 98.0265)
(75.3614 59.994 41.7777)
)

start: 
20
(
(15.3823 0.006 18.2132)
(9.84545 0.006 52.5334)
(6.87546 0.006 83.1726)
(15.3823 0.006 91.1081)
(26.2209 0.006 33.4352)
(20.1677 0.006 63.8931)
(20.1677 0.006 84.2753)
(27.8781 0.006 88.1485)
(34.8752 0.006 49.2993)
(34.8752 0.006 70.6851)
(34.8752 0.006 77.7636)
(37.0149 0.006 12.6745)
(40.4623 0.006 41.8998)
(37.9395 0.006 58.5947)
(34.8752 0.006 91.752)
(37.9395 0.006 84.2753)
(43.5534 0.006 81.9112)
(43.0375 0.006 90.4642)
(44.961 0.006 74.462)
(46.0648 0.006 18.2132)
)

end: 
20
(
(41.7581 59.994 42.3442)
(36.2213 59.994 76.6644)
(33.2513 59.994 107.304)
(41.7581 59.994 115.239)
(52.5967 59.994 57.5662)
(46.5435 59.994 88.0241)
(46.5435 59.994 108.406)
(54.2539 59.994 112.279)
(61.251 59.994 73.4303)
(61.251 59.994 94.8161)
(61.251 59.994 101.895)
(63.3907 59.994 36.8055)
(66.8381 59.994 66.0308)
(64.3153 59.994 82.7256)
(61.251 59.994 115.883)
(64.3153 59.994 108.406)
(69.9292 59.994 106.042)
(69.4133 59.994 114.595)
(71.3368 59.994 98.593)
(72.4406 59.994 42.3442)
)

start: 
20
(
(15.3821 0.006 18.2133)
(9.84516 0.006 52.5335)
(6.87517 0.006 83.1727)
(15.3821 0.006 91.1082)
(26.2207 0.006 33.4353)
(20.1674 0.006 63.8932)
(20.1674 0.006 84.2754)
(27.8778 0.006 88.1485)
(34.875 0.006 49.2994)
(34.875 0.006 70.6852)
(34.875 0.006 77.7637)
(37.0147 0.006 12.6746)
(40.4621 0.006 41.8999)
(37.9393 0.006 58.5947)
(34.875 0.006 91.7521)
(37.9393 0.006 84.2754)
(43.5531 0.006 81.9112)
(43.0373 0.006 90.4643)
(44.9608 0.006 74.4621)
(46.0645 0.006 18.2133)
)

end: 
20
(
(38.8954 59.994 42.8452)
(33.3585 59.994 77.1654)
(30.3886 59.994 107.805)
(38.8954 59.994 115.74)
(49.734 59.994 58.0672)
(43.6808 59.994 88.5251)
(43.6808 59.994 108.907)
(51.3912 59.994 112.78)
(58.3883 59.994 73.9313)
(58.3883 59.994 95.3171)
(58.3883 59.994 102.396)
(60.528 59.994 37.3065)
(63.9754 59.994 66.5318)
(61.4526 59.994 83.2267)
(58.3883 59.994 116.384)
(61.4526 59.994 108.907)
(67.0665 59.994 106.543)
(66.5506 59.994 115.096)
(68.4741 59.994 99.094)
(69.5779 59.994 42.8452)
)

start: 
20
(
(15.3818 0.006 18.2133)
(9.84488 0.006 52.5335)
(6.87489 0.006 83.1727)
(15.3818 0.006 91.1082)
(26.2204 0.006 33.4353)
(20.1671 0.006 63.8932)
(20.1671 0.006 84.2754)
(27.8775 0.006 88.1486)
(34.8747 0.006 49.2994)
(34.8747 0.006 70.6852)
(34.8747 0.006 77.7637)
(37.0144 0.006 12.6746)
(40.4618 0.006 41.8999)
(37.939 0.006 58.5948)
(34.8747 0.006 91.7521)
(37.939 0.006 84.2754)
(43.5528 0.006 81.9113)
(43.037 0.006 90.4643)
(44.9605 0.006 74.4621)
(46.0642 0.006 18.2133)
)

end: 
20
(
(36.0834 59.994 43.2842)
(30.5465 59.994 77.6044)
(27.5765 59.994 108.244)
(36.0834 59.994 116.179)
(46.922 59.994 58.5062)
(40.8687 59.994 88.9641)
(40.8687 59.994 109.346)
(48.5791 59.994 113.219)
(55.5763 59.994 74.3703)
(55.5763 59.994 95.7561)
(55.5763 59.994 102.835)
(57.716 59.994 37.7455)
(61.1634 59.994 66.9708)
(58.6406 59.994 83.6657)
(55.5763 59.994 116.823)
(58.6406 59.994 109.346)
(64.2544 59.994 106.982)
(63.7386 59.994 115.535)
(65.6621 59.994 99.533)
(66.7658 59.994 43.2842)
)

start: 
20
(
(15.3815 0.006 18.2133)
(9.8446 0.006 52.5335)
(6.87461 0.006 83.1727)
(15.3815 0.006 91.1082)
(26.2201 0.006 33.4353)
(20.1668 0.006 63.8932)
(20.1668 0.006 84.2754)
(27.8772 0.006 88.1486)
(34.8744 0.006 49.2994)
(34.8744 0.006 70.6852)
(34.8744 0.006 77.7637)
(37.0141 0.006 12.6746)
(40.4615 0.006 41.8999)
(37.9387 0.006 58.5948)
(34.8744 0.006 91.7521)
(37.9387 0.006 84.2754)
(43.5525 0.006 81.9113)
(43.0367 0.006 90.4643)
(44.9602 0.006 74.4621)
(46.0639 0.006 18.2133)
)

end: 
20
(
(33.3151 59.994 43.6639)
(27.7783 59.994 77.9841)
(24.8083 59.994 108.623)
(33.3151 59.994 116.559)
(44.1537 59.994 58.8859)
(38.1005 59.994 89.3438)
(38.1005 59.994 109.726)
(45.8109 59.994 113.599)
(52.808 59.994 74.75)
(52.808 59.994 96.1358)
(52.808 59.994 103.214)
(54.9477 59.994 38.1252)
(58.3951 59.994 67.3505)
(55.8723 59.994 84.0453)
(52.808 59.994 117.203)
(55.8723 59.994 109.726)
(61.4862 59.994 107.362)
(60.9703 59.994 115.915)
(62.8938 59.994 99.9127)
(63.9976 59.994 43.6639)
)

start: 
20
(
(15.3812 0.006 18.2134)
(9.84433 0.006 52.5336)
(6.87434 0.006 83.1728)
(15.3812 0.006 91.1083)
(26.2198 0.006 33.4354)
(20.1666 0.006 63.8933)
(20.1666 0.006 84.2755)
(27.877 0.006 88.1486)
(34.8741 0.006 49.2995)
(34.8741 0.006 70.6853)
(34.8741 0.006 77.7638)
(37.0138 0.006 12.6747)
(40.4612 0.006 41.9)
(37.9384 0.006 58.5948)
(34.8741 0.006 91.7522)
(37.9384 0.006 84.2755)
(43.5523 0.006 81.9113)
(43.0364 0.006 90.4644)
(44.9599 0.006 74.4622)
(46.0637 0.006 18.2134)
)

end: 
20
(
(30.5842 59.994 43.9867)
(25.0473 59.994 78.3069)
(22.0774 59.994 108.946)
(30.5842 59.994 116.882)
(41.4228 59.994 59.2087)
(35.3696 59.994 89.6666)
(35.3696 59.994 110.049)
(43.08 59.994 113.922)
(50.0771 59.994 75.0728)
(50.0771 59.994 96.4586)
(50.0771 59.994 103.537)
(52.2168 59.994 38.448)
(55.6642 59.994 67.6733)
(53.1414 59.994 84.3681)
(50.0771 59.994 117.525)
(53.1414 59.994 110.049)
(58.7553 59.994 107.685)
(58.2394 59.994 116.238)
(60.1629 59.994 100.235)
(61.2667 59.994 43.9867)
)

start: 
20
(
(15.381 0.006 18.2134)
(9.84406 0.006 52.5336)
(6.87407 0.006 83.1728)
(15.381 0.006 91.1083)
(26.2196 0.006 33.4354)
(20.1663 0.006 63.8933)
(20.1663 0.006 84.2755)
(27.8767 0.006 88.1487)
(34.8739 0.006 49.2995)
(34.8739 0.006 70.6853)
(34.8739 0.006 77.7638)
(37.0136 0.006 12.6747)
(40.461 0.006 41.9)
(37.9382 0.006 58.5949)
(34.8739 0.006 91.7522)
(37.9382 0.006 84.2755)
(43.552 0.006 81.9114)
(43.0362 0.006 90.4644)
(44.9597 0.006 74.4622)
(46.0634 0.006 18.2134)
)

end: 
20
(
(27.8845 59.994 44.2546)
(22.3476 59.994 78.5748)
(19.3777 59.994 109.214)
(27.8845 59.994 117.149)
(38.7231 59.994 59.4766)
(32.6699 59.994 89.9345)
(32.6699 59.994 110.317)
(40.3803 59.994 114.19)
(47.3774 59.994 75.3407)
(47.3774 59.994 96.7265)
(47.3774 59.994 103.805)
(49.5171 59.994 38.7159)
(52.9645 59.994 67.9412)
(50.4417 59.994 84.636)
(47.3774 59.994 117.793)
(50.4417 59.994 110.317)
(56.0556 59.994 107.953)
(55.5397 59.994 116.506)
(57.4632 59.994 100.503)
(58.567 59.994 44.2546)
)

start: 
20
(
(15.3807 0.006 18.2134)
(9.84379 0.006 52.5336)
(6.8738 0.006 83.1728)
(15.3807 0.006 91.1083)
(26.2193 0.006 33.4354)
(20.166 0.006 63.8933)
(20.166 0.006 84.2755)
(27.8764 0.006 88.1487)
(34.8736 0.006 49.2995)
(34.8736 0.006 70.6853)
(34.8736 0.006 77.7638)
(37.0133 0.006 12.6747)
(40.4607 0.006 41.9)
(37.9379 0.006 58.5949)
(34.8736 0.006 91.7522)
(37.9379 0.006 84.2755)
(43.5517 0.006 81.9114)
(43.0359 0.006 90.4644)
(44.9594 0.006 74.4622)
(46.0631 0.006 18.2134)
)

end: 
20
(
(25.2102 59.994 44.4691)
(19.6733 59.994 78.7893)
(16.7033 59.994 109.429)
(25.2102 59.994 117.364)
(36.0488 59.994 59.6911)
(29.9956 59.994 90.149)
(29.9956 59.994 110.531)
(37.706 59.994 114.404)
(44.7031 59.994 75.5552)
(44.7031 59.994 96.941)
(44.7031 59.994 104.02)
(46.8428 59.994 38.9304)
(50.2902 59.994 68.1557)
(47.7674 59.994 84.8506)
(44.7031 59.994 118.008)
(47.7674 59.994 110.531)
(53.3813 59.994 108.167)
(52.8654 59.994 116.72)
(54.7889 59.994 100.718)
(55.8927 59.994 44.4691)
)

start: 
20
(
(15.3804 0.006 18.2134)
(9.84353 0.006 52.5336)
(6.87354 0.006 83.1728)
(15.3804 0.006 91.1083)
(26.219 0.006 33.4354)
(20.1658 0.006 63.8933)
(20.1658 0.006 84.2755)
(27.8762 0.006 88.1487)
(34.8733 0.006 49.2995)
(34.8733 0.006 70.6853)
(34.8733 0.006 77.7638)
(37.013 0.006 12.6747)
(40.4604 0.006 41.9)
(37.9376 0.006 58.5949)
(34.8733 0.006 91.7522)
(37.9376 0.006 84.2755)
(43.5515 0.006 81.9114)
(43.0356 0.006 90.4644)
(44.9591 0.006 74.4622)
(46.0629 0.006 18.2134)
)

end: 
20
(
(22.5556 59.994 44.6318)
(17.0188 59.994 78.952)
(14.0488 59.994 109.591)
(22.5556 59.994 117.527)
(33.3942 59.994 59.8538)
(27.341 59.994 90.3117)
(27.341 59.994 110.694)
(35.0514 59.994 114.567)
(42.0485 59.994 75.7179)
(42.0485 59.994 97.1037)
(42.0485 59.994 104.182)
(44.1882 59.994 39.0931)
(47.6356 59.994 68.3184)
(45.1128 59.994 85.0132)
(42.0485 59.994 118.171)
(45.1128 59.994 110.694)
(50.7267 59.994 108.33)
(50.2108 59.994 116.883)
(52.1343 59.994 100.881)
(53.2381 59.994 44.6318)
)

start: 
20
(
(15.3802 0.006 18.2135)
(9.84326 0.006 52.5337)
(6.87327 0.006 83.1729)
(15.3802 0.006 91.1084)
(26.2188 0.006 33.4355)
(20.1655 0.006 63.8934)
(20.1655 0.006 84.2756)
(27.8759 0.006 88.1487)
(34.8731 0.006 49.2996)
(34.8731 0.006 70.6854)
(34.8731 0.006 77.7639)
(37.0128 0.006 12.6748)
(40.4602 0.006 41.9001)
(37.9374 0.006 58.5949)
(34.8731 0.006 91.7523)
(37.9374 0.006 84.2756)
(43.5512 0.006 81.9114)
(43.0354 0.006 90.4645)
(44.9589 0.006 74.4623)
(46.0626 0.006 18.2135)
)

end: 
20
(
(19.9154 59.994 44.7433)
(14.3785 59.994 79.0635)
(11.4085 59.994 109.703)
(19.9154 59.994 117.638)
(30.754 59.994 59.9653)
(24.7008 59.994 90.4232)
(24.7008 59.994 110.805)
(32.4112 59.994 114.679)
(39.4083 59.994 75.8294)
(39.4083 59.994 97.2152)
(39.4083 59.994 104.294)
(41.548 59.994 39.2046)
(44.9954 59.994 68.4299)
(42.4726 59.994 85.1248)
(39.4083 59.994 118.282)
(42.4726 59.994 110.805)
(48.0865 59.994 108.441)
(47.5706 59.994 116.994)
(49.4941 59.994 100.992)
(50.5979 59.994 44.7433)
)

start: 
20
(
(15.3799 0.006 18.2135)
(9.843 0.006 52.5337)
(6.87301 0.006 83.1729)
(15.3799 0.006 91.1084)
(26.2185 0.006 33.4355)
(20.1652 0.006 63.8934)
(20.1652 0.006 84.2756)
(27.8756 0.006 88.1487)
(34.8728 0.006 49.2996)
(34.8728 0.006 70.6854)
(34.8728 0.006 77.7639)
(37.0125 0.006 12.6748)
(40.4599 0.006 41.9001)
(37.9371 0.006 58.5949)
(34.8728 0.006 91.7523)
(37.9371 0.006 84.2756)
(43.5509 0.006 81.9114)
(43.0351 0.006 90.4645)
(44.9586 0.006 74.4623)
(46.0623 0.006 18.2135)
)

end: 
20
(
(17.2842 59.994 44.8046)
(11.7473 59.994 79.1248)
(8.77729 59.994 109.764)
(17.2842 59.994 117.699)
(28.1228 59.994 60.0266)
(22.0695 59.994 90.4845)
(22.0695 59.994 110.867)
(29.7799 59.994 114.74)
(36.7771 59.994 75.8907)
(36.7771 59.994 97.2765)
(36.7771 59.994 104.355)
(38.9168 59.994 39.2659)
(42.3642 59.994 68.4912)
(39.8414 59.994 85.186)
(36.7771 59.994 118.343)
(39.8414 59.994 110.867)
(45.4552 59.994 108.503)
(44.9394 59.994 117.056)
(46.8629 59.994 101.053)
(47.9666 59.994 44.8046)
)

start: 
20
(
(15.3796 0.006 18.2135)
(9.84274 0.006 52.5337)
(6.87275 0.006 83.1729)
(15.3796 0.006 91.1084)
(26.2182 0.006 33.4355)
(20.165 0.006 63.8934)
(20.165 0.006 84.2756)
(27.8754 0.006 88.1487)
(34.8725 0.006 49.2996)
(34.8725 0.006 70.6854)
(34.8725 0.006 77.7639)
(37.0122 0.006 12.6748)
(40.4596 0.006 41.9001)
(37.9368 0.006 58.5949)
(34.8725 0.006 91.7523)
(37.9368 0.006 84.2756)
(43.5507 0.006 81.9114)
(43.0348 0.006 90.4645)
(44.9583 0.006 74.4623)
(46.0621 0.006 18.2135)
)

end: 
20
(
(14.6567 59.994 44.8158)
(9.11982 59.994 79.136)
(6.14983 59.994 109.775)
(14.6567 59.994 117.711)
(25.4953 59.994 60.0378)
(19.4421 59.994 90.4957)
(19.4421 59.994 110.878)
(27.1525 59.994 114.751)
(34.1496 59.994 75.9019)
(34.1496 59.994 97.2877)
(34.1496 59.994 104.366)
(36.2893 59.994 39.2771)
(39.7367 59.994 68.5024)
(37.2139 59.994 85.1972)
(34.1496 59.994 118.355)
(37.2139 59.994 110.878)
(42.8278 59.994 108.514)
(42.3119 59.994 117.067)
(44.2354 59.994 101.065)
(45.3392 59.994 44.8158)
)

start: 
20
(
(15.3794 0.006 18.2135)
(9.84247 0.006 52.5337)
(6.87248 0.006 83.1729)
(15.3794 0.006 91.1084)
(26.218 0.006 33.4355)
(20.1647 0.006 63.8934)
(20.1647 0.006 84.2756)
(27.8751 0.006 88.1487)
(34.8723 0.006 49.2996)
(34.8723 0.006 70.6854)
(34.8723 0.006 77.7639)
(37.012 0.006 12.6748)
(40.4594 0.006 41.9001)
(37.9366 0.006 58.5949)
(34.8723 0.006 91.7523)
(37.9366 0.006 84.2756)
(43.5504 0.006 81.9114)
(43.0346 0.006 90.4645)
(44.9581 0.006 74.4623)
(46.0618 0.006 18.2135)
)

end: 
20
(
(12.0278 59.994 44.7771)
(6.49093 59.994 79.0973)
(3.52094 59.994 109.736)
(12.0278 59.994 117.672)
(22.8664 59.994 59.9991)
(16.8132 59.994 90.457)
(16.8132 59.994 110.839)
(24.5236 59.994 114.712)
(31.5207 59.994 75.8632)
(31.5207 59.994 97.249)
(31.5207 59.994 104.327)
(33.6604 59.994 39.2384)
(37.1078 59.994 68.4637)
(34.585 59.994 85.1585)
(31.5207 59.994 118.316)
(34.585 59.994 110.839)
(40.1989 59.994 108.475)
(39.683 59.994 117.028)
(41.6065 59.994 101.026)
(42.7103 59.994 44.7771)
)

start: 
20
(
(15.3791 0.006 18.2134)
(9.84221 0.006 52.5336)
(6.87222 0.006 83.1728)
(15.3791 0.006 91.1083)
(26.2177 0.006 33.4354)
(20.1645 0.006 63.8933)
(20.1645 0.006 84.2755)
(27.8749 0.006 88.1487)
(34.872 0.006 49.2995)
(34.872 0.006 70.6853)
(34.872 0.006 77.7638)
(37.0117 0.006 12.6747)
(40.4591 0.006 41.9)
(37.9363 0.006 58.5949)
(34.872 0.006 91.7522)
(37.9363 0.006 84.2755)
(43.5502 0.006 81.9114)
(43.0343 0.006 90.4644)
(44.9578 0.006 74.4622)
(46.0616 0.006 18.2134)
)

end: 
20
(
(9.39228 59.994 44.6882)
(3.85539 59.994 79.0084)
(0.885405 59.994 109.648)
(9.39228 59.994 117.583)
(20.2309 59.994 59.9102)
(14.1776 59.994 90.3681)
(14.1776 59.994 110.75)
(21.888 59.994 114.623)
(28.8852 59.994 75.7743)
(28.8852 59.994 97.1601)
(28.8852 59.994 104.239)
(31.0249 59.994 39.1495)
(34.4723 59.994 68.3748)
(31.9495 59.994 85.0696)
(28.8852 59.994 118.227)
(31.9495 59.994 110.75)
(37.5633 59.994 108.386)
(37.0475 59.994 116.939)
(38.971 59.994 100.937)
(40.0747 59.994 44.6882)
)

start: 
20
(
(15.3788 0.006 18.2134)
(9.84195 0.006 52.5336)
(6.87213 0.00477515 83.1723)
(15.3788 0.006 91.1083)
(26.2174 0.006 33.4354)
(20.1642 0.006 63.8933)
(20.1642 0.006 84.2755)
(27.8746 0.006 88.1487)
(34.8717 0.006 49.2995)
(34.8717 0.006 70.6853)
(34.8717 0.006 77.7638)
(37.0114 0.006 12.6747)
(40.4588 0.006 41.9)
(37.936 0.006 58.5949)
(34.8717 0.006 91.7522)
(37.936 0.006 84.2755)
(43.5499 0.006 81.9114)
(43.034 0.006 90.4644)
(44.9575 0.006 74.4622)
[...]
0.00403453
0.00403453
0.00403453
0.00403453
0.00403453
0.00403453
0.00403453
0.00403453
0
0
0
0
0
0
0
0
)

39{0}
39{0}
39{0}
39{0}
39{0}
39{0}
39{0}
39{0}
39{0}
39{0}
39{0}
39{0}
39{0}
39{0}
39{0}
39{0}
39{0}
39{0}
39{0}
39{0}
39{0}
39{0}
)

skyViewCoeff: 
144
(
39{0}
39{0}
39{0}
39{0}
39{0}
39{0}
39{0}
39{0}
39{0}
39{0}
39{0}
39{0}
39{0}
39{0}
39{0}
39{0}
39{0}
39{0}
39{0}
39{0}
39{0}
39{0}
39{0}
39{0}
39{0}
39{0}
39{0}
39{0}

39
(
0
0
0
0
0
0
0
0
0
0
0
1.09084e-05
1.09084e-05
1.09084e-05
1.09084e-05
1.09084e-05
1.09084e-05
1.09084e-05
1.09084e-05
1.09084e-05
1.09084e-05
1.09084e-05
1.09084e-05
1.09084e-05
1.09084e-05
1.09084e-05
1.09084e-05
1.09084e-05
1.09084e-05
1.09084e-05
1.09084e-05
0
0
0
0
0
0
0
0
)


39
(
0
0
0
0
0
0
0
0
0
0
0
0.567713
0.567713
0.567713
0.567713
0.567713
0.567713
0.567713
0.567713
0.567713
0.567713
0.567713
0.567713
0.567713
0.567713
0.567713
0.567713
0.567713
0.567713
0.567713
0.567713
0
0
0
0
0
0
0
0
)


39
(
0
0
0
0
0
0
0
0
0
0
0
5.3106
5.3106
5.3106
5.3106
5.3106
5.3106
5.3106
5.3106
5.3106
5.3106
5.3106
5.3106
5.3106
5.3106
5.3106
5.3106
5.3106
5.3106
5.3106
5.3106
0
0
0
0
0
0
0
0
)


39
(
0
0
0
0
0
0
0
0
0
0
0
13.9151
13.9151
13.9151
13.9151
13.9151
13.9151
13.9151
13.9151
13.9151
13.9151
13.9151
13.9151
13.9151
13.9151
13.9151
13.9151
13.9151
13.9151
13.9151
13.9151
0
0
0
0
0
0
0
0
)


39
(
0
0
0
0
0
0
0
0
0
0
0
23.7714
23.7714
23.7714
23.7714
23.7714
23.7714
23.7714
23.7714
23.7714
23.7714
23.7714
23.7714
23.7714
23.7714
23.7714
23.7714
23.7714
23.7714
23.7714
23.7714
0
0
0
0
0
0
0
0
)


39
(
0
0
0
0
0
0
0
0
0
0
0
33.4073
33.4073
33.4073
33.4073
33.4073
33.4073
33.4073
33.4073
33.4073
33.4073
33.4073
33.4073
33.4073
33.4073
33.4073
33.4073
33.4073
33.4073
33.4073
33.4073
0
0
0
0
0
0
0
0
)


39
(
0
0
0
0
0
0
0
0
0
0
0
42.2549
42.2549
42.2549
42.2549
42.2549
42.2549
42.2549
42.2549
42.2549
42.2549
42.2549
42.2549
42.2549
42.2549
42.2549
42.2549
42.2549
42.2549
42.2549
42.2549
0
0
0
0
0
0
0
0
)


39
(
0
0
0
0
0
0
0
0
0
0
0
50.1678
50.1678
50.1678
50.1678
50.1678
50.1678
50.1678
50.1678
50.1678
50.1678
50.1678
50.1678
50.1678
50.1678
50.1678
50.1678
50.1678
50.1678
50.1678
50.1678
0
0
0
0
0
0
0
0
)


39
(
0
0
0
0
0
0
0
0
0
0
0
57.1708
57.1708
57.1708
57.1708
57.1708
57.1708
57.1708
57.1708
57.1708
57.1708
57.1708
57.1708
57.1708
57.1708
57.1708
57.1708
57.1708
57.1708
57.1708
57.1708
0
0
0
0
0
0
0
0
)


39
(
0
0
0
0
0
0
0
0
0
0
0
63.3493
63.3493
63.3493
63.3493
63.3493
63.3493
63.3493
63.3493
63.3493
63.3493
63.3493
63.3493
63.3493
63.3493
63.3493
63.3493
63.3493
63.3493
63.3493
63.3493
0
0
0
0
0
0
0
0
)


39
(
0
0
0
0
0
0
0
0
0
0
0
68.8028
68.8028
68.8028
68.8028
68.8028
68.8028
68.8028
68.8028
68.8028
68.8028
68.8028
68.8028
68.8028
68.8028
68.8028
68.8028
68.8028
68.8028
68.8028
68.8028
0
0
0
0
0
0
0
0
)


39
(
0
0
0
0
0
0
0
0
0
0
0
73.6274
73.6274
73.6274
73.6274
73.6274
73.6274
73.6274
73.6274
73.6274
73.6274
73.6274
73.6274
73.6274
73.6274
73.6274
73.6274
73.6274
73.6274
73.6274
73.6274
0
0
0
0
0
0
0
0
)


39
(
0
0
0
0
0
0
0
0
0
0
0
77.9086
77.9086
77.9086
77.9086
77.9086
77.9086
77.9086
77.9086
77.9086
77.9086
77.9086
77.9086
77.9086
77.9086
77.9086
77.9086
77.9086
77.9086
77.9086
77.9086
0
0
0
0
0
0
0
0
)


39
(
0
0
0
0
0
0
0
0
0
0
0
81.7207
81.7207
81.7207
81.7207
81.7207
81.7207
81.7207
81.7207
81.7207
81.7207
81.7207
81.7207
81.7207
81.7207
81.7207
81.7207
81.7207
81.7207
81.7207
81.7207
0
0
0
0
0
0
0
0
)


39
(
0
0
0
0
0
0
0
0
0
0
0
85.1268
85.1268
85.1268
85.1268
85.1268
85.1268
85.1268
85.1268
85.1268
85.1268
85.1268
85.1268
85.1268
85.1268
85.1268
85.1268
85.1268
85.1268
85.1268
85.1268
0
0
0
0
0
0
0
0
)


39
(
0
0
0
0
0
0
0
0
0
0
0
88.1804
88.1804
88.1804
88.1804
88.1804
88.1804
88.1804
88.1804
88.1804
88.1804
88.1804
88.1804
88.1804
88.1804
88.1804
88.1804
88.1804
88.1804
88.1804
88.1804
0
0
0
0
0
0
0
0
)


39
(
0
0
0
0
0
0
0
0
0
0
0
90.9267
90.9267
90.9267
90.9267
90.9267
90.9267
90.9267
90.9267
90.9267
90.9267
90.9267
90.9267
90.9267
90.9267
90.9267
90.9267
90.9267
90.9267
90.9267
90.9267
0
0
0
0
0
0
0
0
)


39
(
0
0
0
0
0
0
0
0
0
0
0
93.4039
93.4039
93.4039
93.4039
93.4039
93.4039
93.4039
93.4039
93.4039
93.4039
93.4039
93.4039
93.4039
93.4039
93.4039
93.4039
93.4039
93.4039
93.4039
93.4039
0
0
0
0
0
0
0
0
)


39
(
0
0
0
0
0
0
0
0
0
0
0
95.6445
95.6445
95.6445
95.6445
95.6445
95.6445
95.6445
95.6445
95.6445
95.6445
95.6445
95.6445
95.6445
95.6445
95.6445
95.6445
95.6445
95.6445
95.6445
95.6445
0
0
0
0
0
0
0
0
)


39
(
0
0
0
0
0
0
0
0
0
0
0
97.6761
97.6761
97.6761
97.6761
97.6761
97.6761
97.6761
97.6761
97.6761
97.6761
97.6761
97.6761
97.6761
97.6761
97.6761
97.6761
97.6761
97.6761
97.6761
97.6761
0
0
0
0
0
0
0
0
)


39
(
0
0
0
0
0
0
0
0
0
0
0
99.5222
99.5222
99.5222
99.5222
99.5222
99.5222
99.5222
99.5222
99.5222
99.5222
99.5222
99.5222
99.5222
99.5222
99.5222
99.5222
99.5222
99.5222
99.5222
99.5222
0
0
0
0
0
0
0
0
)


39
(
0
0
0
0
0
0
0
0
0
0
0
101.203
101.203
101.203
101.203
101.203
101.203
101.203
101.203
101.203
101.203
101.203
101.203
101.203
101.203
101.203
101.203
101.203
101.203
101.203
101.203
0
0
0
0
0
0
0
0
)


39
(
0
0
0
0
0
0
0
0
0
0
0
102.736
102.736
102.736
102.736
102.736
102.736
102.736
102.736
102.736
102.736
102.736
102.736
102.736
102.736
102.736
102.736
102.736
102.736
102.736
102.736
0
0
0
0
0
0
0
0
)


39
(
0
0
0
0
0
0
0
0
0
0
0
104.136
104.136
104.136
104.136
104.136
104.136
104.136
104.136
104.136
104.136
104.136
104.136
104.136
104.136
104.136
104.136
104.136
104.136
104.136
104.136
0
0
0
0
0
0
0
0
)


39
(
0
0
0
0
0
0
0
0
0
0
0
105.416
105.416
105.416
105.416
105.416
105.416
105.416
105.416
105.416
105.416
105.416
105.416
105.416
105.416
105.416
105.416
105.416
105.416
105.416
105.416
0
0
0
0
0
0
0
0
)


39
(
0
0
0
0
0
0
0
0
0
0
0
106.588
106.588
106.588
106.588
106.588
106.588
106.588
106.588
106.588
106.588
106.588
106.588
106.588
106.588
106.588
106.588
106.588
106.588
106.588
106.588
0
0
0
0
0
0
0
0
)


39
(
0
0
0
0
0
0
0
0
0
0
0
107.661
107.661
107.661
107.661
107.661
107.661
107.661
107.661
107.661
107.661
107.661
107.661
107.661
107.661
107.661
107.661
107.661
107.661
107.661
107.661
0
0
0
0
0
0
0
0
)


39
(
0
0
0
0
0
0
0
0
0
0
0
108.643
108.643
108.643
108.643
108.643
108.643
108.643
108.643
108.643
108.643
108.643
108.643
108.643
108.643
108.643
108.643
108.643
108.643
108.643
108.643
0
0
0
0
0
0
0
0
)


39
(
0
0
0
0
0
0
0
0
0
0
0
109.543
109.543
109.543
109.543
109.543
109.543
109.543
109.543
109.543
109.543
109.543
109.543
109.543
109.543
109.543
109.543
109.543
109.543
109.543
109.543
0
0
0
0
0
0
0
0
)


39
(
0
0
0
0
0
0
0
0
0
0
0
110.367
110.367
110.367
110.367
110.367
110.367
110.367
110.367
110.367
110.367
110.367
110.367
110.367
110.367
110.367
110.367
110.367
110.367
110.367
110.367
0
0
0
0
0
0
0
0
)


39
(
0
0
0
0
0
0
0
0
0
0
0
111.121
111.121
111.121
111.121
111.121
111.121
111.121
111.121
111.121
111.121
111.121
111.121
111.121
111.121
111.121
111.121
111.121
111.121
111.121
111.121
0
0
0
0
0
0
0
0
)


39
(
0
0
0
0
0
0
0
0
0
0
0
111.81
111.81
111.81
111.81
111.81
111.81
111.81
111.81
111.81
111.81
111.81
111.81
111.81
111.81
111.81
111.81
111.81
111.81
111.81
111.81
0
0
0
0
0
0
0
0
)


39
(
0
0
0
0
0
0
0
0
0
0
0
112.439
112.439
112.439
112.439
112.439
112.439
112.439
112.439
112.439
112.439
112.439
112.439
112.439
112.439
112.439
112.439
112.439
112.439
112.439
112.439
0
0
0
0
0
0
0
0
)


39
(
0
0
0
0
0
0
0
0
0
0
0
113.011
113.011
113.011
113.011
113.011
113.011
113.011
113.011
113.011
113.011
113.011
113.011
113.011
113.011
113.011
113.011
113.011
113.011
113.011
113.011
0
0
0
0
0
0
0
0
)


39
(
0
0
0
0
0
0
0
0
0
0
0
113.53
113.53
113.53
113.53
113.53
113.53
113.53
113.53
113.53
113.53
113.53
113.53
113.53
113.53
113.53
113.53
113.53
113.53
113.53
113.53
0
0
0
0
0
0
0
0
)


39
(
0
0
0
0
0
0
0
0
0
0
0
113.999
113.999
113.999
113.999
113.999
113.999
113.999
113.999
113.999
113.999
113.999
113.999
113.999
113.999
113.999
113.999
113.999
113.999
113.999
113.999
0
0
0
0
0
0
0
0
)


39
(
0
0
0
0
0
0
0
0
0
0
0
114.422
114.422
114.422
114.422
114.422
114.422
114.422
114.422
114.422
114.422
114.422
114.422
114.422
114.422
114.422
114.422
114.422
114.422
114.422
114.422
0
0
0
0
0
0
0
0
)


39
(
0
0
0
0
0
0
0
0
0
0
0
114.799
114.799
114.799
114.799
114.799
114.799
114.799
114.799
114.799
114.799
114.799
114.799
114.799
114.799
114.799
114.799
114.799
114.799
114.799
114.799
0
0
0
0
0
0
0
0
)


39
(
0
0
0
0
0
0
0
0
0
0
0
115.134
115.134
115.134
115.134
115.134
115.134
115.134
115.134
115.134
115.134
115.134
115.134
115.134
115.134
115.134
115.134
115.134
115.134
115.134
115.134
0
0
0
0
0
0
0
0
)


39
(
0
0
0
0
0
0
0
0
0
0
0
115.428
115.428
115.428
115.428
115.428
115.428
115.428
115.428
115.428
115.428
115.428
115.428
115.428
115.428
115.428
115.428
115.428
115.428
115.428
115.428
0
0
0
0
0
0
0
0
)


39
(
0
0
0
0
0
0
0
0
0
0
0
115.684
115.684
115.684
115.684
115.684
115.684
115.684
115.684
115.684
115.684
115.684
115.684
115.684
115.684
115.684
115.684
115.684
115.684
115.684
115.684
0
0
0
0
0
0
0
0
)


39
(
0
0
0
0
0
0
0
0
0
0
0
115.901
115.901
115.901
115.901
115.901
115.901
115.901
115.901
115.901
115.901
115.901
115.901
115.901
115.901
115.901
115.901
115.901
115.901
115.901
115.901
0
0
0
0
0
0
0
0
)


39
(
0
0
0
0
0
0
0
0
0
0
0
116.082
116.082
116.082
116.082
116.082
116.082
116.082
116.082
116.082
116.082
116.082
116.082
116.082
116.082
116.082
116.082
116.082
116.082
116.082
116.082
0
0
0
0
0
0
0
0
)


39
(
0
0
0
0
0
0
0
0
0
0
0
116.227
116.227
116.227
116.227
116.227
116.227
116.227
116.227
116.227
116.227
116.227
116.227
116.227
116.227
116.227
116.227
116.227
116.227
116.227
116.227
0
0
0
0
0
0
0
0
)


39
(
0
0
0
0
0
0
0
0
0
0
0
116.337
116.337
116.337
116.337
116.337
116.337
116.337
116.337
116.337
116.337
116.337
116.337
116.337
116.337
116.337
116.337
116.337
116.337
116.337
116.337
0
0
0
0
0
0
0
0
)


39
(
0
0
0
0
0
0
0
0
0
0
0
116.412
116.412
116.412
116.412
116.412
116.412
116.412
116.412
116.412
116.412
116.412
116.412
116.412
116.412
116.412
116.412
116.412
116.412
116.412
116.412
0
0
0
0
0
0
0
0
)


39
(
0
0
0
0
0
0
0
0
0
0
0
116.454
116.454
116.454
116.454
116.454
116.454
116.454
116.454
116.454
116.454
116.454
116.454
116.454
116.454
116.454
116.454
116.454
116.454
116.454
116.454
0
0
0
0
0
0
0
0
)


39
(
0
0
0
0
0
0
0
0
0
0
0
116.461
116.461
116.461
116.461
116.461
116.461
116.461
116.461
116.461
116.461
116.461
116.461
116.461
116.461
116.461
116.461
116.461
116.461
116.461
116.461
0
0
0
0
0
0
0
0
)


39
(
0
0
0
0
0
0
0
0
0
0
0
116.435
116.435
116.435
116.435
116.435
116.435
116.435
116.435
116.435
116.435
116.435
116.435
116.435
116.435
116.435
116.435
116.435
116.435
116.435
116.435
0
0
0
0
0
0
0
0
)


39
(
0
0
0
0
0
0
0
0
0
0
0
116.375
116.375
116.375
116.375
116.375
116.375
116.375
116.375
116.375
116.375
116.375
116.375
116.375
116.375
116.375
116.375
116.375
116.375
116.375
116.375
0
0
0
0
0
0
0
0
)


39
(
0
0
0
0
0
0
0
0
0
0
0
116.28
116.28
116.28
116.28
116.28
116.28
116.28
116.28
116.28
116.28
116.28
116.28
116.28
116.28
116.28
116.28
116.28
116.28
116.28
116.28
0
0
0
0
0
0
0
0
)


39
(
0
0
0
0
0
0
0
0
0
0
0
116.151
116.151
116.151
116.151
116.151
116.151
116.151
116.151
116.151
116.151
116.151
116.151
116.151
116.151
116.151
116.151
116.151
116.151
116.151
116.151
0
0
0
0
0
0
0
0
)


39
(
0
0
0
0
0
0
0
0
0
0
0
115.987
115.987
115.987
115.987
115.987
115.987
115.987
115.987
115.987
115.987
115.987
115.987
115.987
115.987
115.987
115.987
115.987
115.987
115.987
115.987
0
0
0
0
0
0
0
0
)


39
(
0
0
0
0
0
0
0
0
0
0
0
115.786
115.786
115.786
115.786
115.786
115.786
115.786
115.786
115.786
115.786
115.786
115.786
115.786
115.786
115.786
115.786
115.786
115.786
115.786
115.786
0
0
0
0
0
0
0
0
)


39
(
0
0
0
0
0
0
0
0
0
0
0
115.548
115.548
115.548
115.548
115.548
115.548
115.548
115.548
115.548
115.548
115.548
115.548
115.548
115.548
115.548
115.548
115.548
115.548
115.548
115.548
0
0
0
0
0
0
0
0
)


39
(
0
0
0
0
0
0
0
0
0
0
0
115.271
115.271
115.271
115.271
115.271
115.271
115.271
115.271
115.271
115.271
115.271
115.271
115.271
115.271
115.271
115.271
115.271
115.271
115.271
115.271
0
0
0
0
0
0
0
0
)


39
(
0
0
0
0
0
0
0
0
0
0
0
114.955
114.955
114.955
114.955
114.955
114.955
114.955
114.955
114.955
114.955
114.955
114.955
114.955
114.955
114.955
114.955
114.955
114.955
114.955
114.955
0
0
0
0
0
0
0
0
)


39
(
0
0
0
0
0
0
0
0
0
0
0
114.597
114.597
114.597
114.597
114.597
114.597
114.597
114.597
114.597
114.597
114.597
114.597
114.597
114.597
114.597
114.597
114.597
114.597
114.597
114.597
0
0
0
0
0
0
0
0
)


39
(
0
0
0
0
0
0
0
0
0
0
0
114.195
114.195
114.195
114.195
114.195
114.195
114.195
114.195
114.195
114.195
114.195
114.195
114.195
114.195
114.195
114.195
114.195
114.195
114.195
114.195
0
0
0
0
0
0
0
0
)


39
(
0
0
0
0
0
0
0
0
0
0
0
113.747
113.747
113.747
113.747
113.747
113.747
113.747
113.747
113.747
113.747
113.747
113.747
113.747
113.747
113.747
113.747
113.747
113.747
113.747
113.747
0
0
0
0
0
0
0
0
)


39
(
0
0
0
0
0
0
0
0
0
0
0
113.251
113.251
113.251
113.251
113.251
113.251
113.251
113.251
113.251
113.251
113.251
113.251
113.251
113.251
113.251
113.251
113.251
113.251
113.251
113.251
0
0
0
0
0
0
0
0
)


39
(
0
0
0
0
0
0
0
0
0
0
0
112.703
112.703
112.703
112.703
112.703
112.703
112.703
112.703
112.703
112.703
112.703
112.703
112.703
112.703
112.703
112.703
112.703
112.703
112.703
112.703
0
0
0
0
0
0
0
0
)


39
(
0
0
0
0
0
0
0
0
0
0
0
112.1
112.1
112.1
112.1
112.1
112.1
112.1
112.1
112.1
112.1
112.1
112.1
112.1
112.1
112.1
112.1
112.1
112.1
112.1
112.1
0
0
0
0
0
0
0
0
)


39
(
0
0
0
0
0
0
0
0
0
0
0
111.439
111.439
111.439
111.439
111.439
111.439
111.439
111.439
111.439
111.439
111.439
111.439
111.439
111.439
111.439
111.439
111.439
111.439
111.439
111.439
0
0
0
0
0
0
0
0
)


39
(
0
0
0
0
0
0
0
0
0
0
0
110.715
110.715
110.715
110.715
110.715
110.715
110.715
110.715
110.715
110.715
110.715
110.715
110.715
110.715
110.715
110.715
110.715
110.715
110.715
110.715
0
0
0
0
0
0
0
0
)


39
(
0
0
0
0
0
0
0
0
0
0
0
109.923
109.923
109.923
109.923
109.923
109.923
109.923
109.923
109.923
109.923
109.923
109.923
109.923
109.923
109.923
109.923
109.923
109.923
109.923
109.923
0
0
0
0
0
0
0
0
)


39
(
0
0
0
0
0
0
0
0
0
0
0
109.058
109.058
109.058
109.058
109.058
109.058
109.058
109.058
109.058
109.058
109.058
109.058
109.058
109.058
109.058
109.058
109.058
109.058
109.058
109.058
0
0
0
0
0
0
0
0
)


39
(
0
0
0
0
0
0
0
0
0
0
0
108.113
108.113
108.113
108.113
108.113
108.113
108.113
108.113
108.113
108.113
108.113
108.113
108.113
108.113
108.113
108.113
108.113
108.113
108.113
108.113
0
0
0
0
0
0
0
0
)


39
(
0
0
0
0
0
0
0
0
0
0
0
107.082
107.082
107.082
107.082
107.082
107.082
107.082
107.082
107.082
107.082
107.082
107.082
107.082
107.082
107.082
107.082
107.082
107.082
107.082
107.082
0
0
0
0
0
0
0
0
)


39
(
0
0
0
0
0
0
0
0
0
0
0
105.956
105.956
105.956
105.956
105.956
105.956
105.956
105.956
105.956
105.956
105.956
105.956
105.956
105.956
105.956
105.956
105.956
105.956
105.956
105.956
0
0
0
0
0
0
0
0
)


39
(
0
0
0
0
0
0
0
0
0
0
0
104.726
104.726
104.726
104.726
104.726
104.726
104.726
104.726
104.726
104.726
104.726
104.726
104.726
104.726
104.726
104.726
104.726
104.726
104.726
104.726
0
0
0
0
0
0
0
0
)


39
(
0
0
0
0
0
0
0
0
0
0
0
103.381
103.381
103.381
103.381
103.381
103.381
103.381
103.381
103.381
103.381
103.381
103.381
103.381
103.381
103.381
103.381
103.381
103.381
103.381
103.381
0
0
0
0
0
0
0
0
)


39
(
0
0
0
0
0
0
0
0
0
0
0
101.91
101.91
101.91
101.91
101.91
101.91
101.91
101.91
101.91
101.91
101.91
101.91
101.91
101.91
101.91
101.91
101.91
101.91
101.91
101.91
0
0
0
0
0
0
0
0
)


39
(
0
0
0
0
0
0
0
0
0
0
0
100.297
100.297
100.297
100.297
100.297
100.297
100.297
100.297
100.297
100.297
100.297
100.297
100.297
100.297
100.297
100.297
100.297
100.297
100.297
100.297
0
0
0
0
0
0
0
0
)


39
(
0
0
0
0
0
0
0
0
0
0
0
98.5278
98.5278
98.5278
98.5278
98.5278
98.5278
98.5278
98.5278
98.5278
98.5278
98.5278
98.5278
98.5278
98.5278
98.5278
98.5278
98.5278
98.5278
98.5278
98.5278
0
0
0
0
0
0
0
0
)


39
(
0
0
0
0
0
0
0
0
0
0
0
96.5823
96.5823
96.5823
96.5823
96.5823
96.5823
96.5823
96.5823
96.5823
96.5823
96.5823
96.5823
96.5823
96.5823
96.5823
96.5823
96.5823
96.5823
96.5823
96.5823
0
0
0
0
0
0
0
0
)


39
(
0
0
0
0
0
0
0
0
0
0
0
94.4388
94.4388
94.4388
94.4388
94.4388
94.4388
94.4388
94.4388
94.4388
94.4388
94.4388
94.4388
94.4388
94.4388
94.4388
94.4388
94.4388
94.4388
94.4388
94.4388
0
0
0
0
0
0
0
0
)


39
(
0
0
0
0
0
0
0
0
0
0
0
92.0717
92.0717
92.0717
92.0717
92.0717
92.0717
92.0717
92.0717
92.0717
92.0717
92.0717
92.0717
92.0717
92.0717
92.0717
92.0717
92.0717
92.0717
92.0717
92.0717
0
0
0
0
0
0
0
0
)


39
(
0
0
0
0
0
0
0
0
0
0
0
89.4507
89.4507
89.4507
89.4507
89.4507
89.4507
89.4507
89.4507
89.4507
89.4507
89.4507
89.4507
89.4507
89.4507
89.4507
89.4507
89.4507
89.4507
89.4507
89.4507
0
0
0
0
0
0
0
0
)


39
(
0
0
0
0
0
0
0
0
0
0
0
86.5405
86.5405
86.5405
86.5405
86.5405
86.5405
86.5405
86.5405
86.5405
86.5405
86.5405
86.5405
86.5405
86.5405
86.5405
86.5405
86.5405
86.5405
86.5405
86.5405
0
0
0
0
0
0
0
0
)


39
(
0
0
0
0
0
0
0
0
0
0
0
83.2989
83.2989
83.2989
83.2989
83.2989
83.2989
83.2989
83.2989
83.2989
83.2989
83.2989
83.2989
83.2989
83.2989
83.2989
83.2989
83.2989
83.2989
83.2989
83.2989
0
0
0
0
0
0
0
0
)


39
(
0
0
0
0
0
0
0
0
0
0
0
79.6766
79.6766
79.6766
79.6766
79.6766
79.6766
79.6766
79.6766
79.6766
79.6766
79.6766
79.6766
79.6766
79.6766
79.6766
79.6766
79.6766
79.6766
79.6766
79.6766
0
0
0
0
0
0
0
0
)


39
(
0
0
0
0
0
0
0
0
0
0
0
75.6148
75.6148
75.6148
75.6148
75.6148
75.6148
75.6148
75.6148
75.6148
75.6148
75.6148
75.6148
75.6148
75.6148
75.6148
75.6148
75.6148
75.6148
75.6148
75.6148
0
0
0
0
0
0
0
0
)


39
(
0
0
0
0
0
0
0
0
0
0
0
71.0444
71.0444
71.0444
71.0444
71.0444
71.0444
71.0444
71.0444
71.0444
71.0444
71.0444
71.0444
71.0444
71.0444
71.0444
71.0444
71.0444
71.0444
71.0444
71.0444
0
0
0
0
0
0
0
0
)


39
(
0
0
0
0
0
0
0
0
0
0
0
65.885
65.885
65.885
65.885
65.885
65.885
65.885
65.885
65.885
65.885
65.885
65.885
65.885
65.885
65.885
65.885
65.885
65.885
65.885
65.885
0
0
0
0
0
0
0
0
)


39
(
0
0
0
0
0
0
0
0
0
0
0
60.0448
60.0448
60.0448
60.0448
60.0448
60.0448
60.0448
60.0448
60.0448
60.0448
60.0448
60.0448
60.0448
60.0448
60.0448
60.0448
60.0448
60.0448
60.0448
60.0448
0
0
0
0
0
0
0
0
)


39
(
0
0
0
0
0
0
0
0
0
0
0
53.4246
53.4246
53.4246
53.4246
53.4246
53.4246
53.4246
53.4246
53.4246
53.4246
53.4246
53.4246
53.4246
53.4246
53.4246
53.4246
53.4246
53.4246
53.4246
53.4246
0
0
0
0
0
0
0
0
)


39
(
0
0
0
0
0
0
0
0
0
0
0
45.929
45.929
45.929
45.929
45.929
45.929
45.929
45.929
45.929
45.929
45.929
45.929
45.929
45.929
45.929
45.929
45.929
45.929
45.929
45.929
0
0
0
0
0
0
0
0
)


39
(
0
0
0
0
0
0
0
0
0
0
0
37.4975
37.4975
37.4975
37.4975
37.4975
37.4975
37.4975
37.4975
37.4975
37.4975
37.4975
37.4975
37.4975
37.4975
37.4975
37.4975
37.4975
37.4975
37.4975
37.4975
0
0
0
0
0
0
0
0
)


39
(
0
0
0
0
0
0
0
0
0
0
0
28.1792
28.1792
28.1792
28.1792
28.1792
28.1792
28.1792
28.1792
28.1792
28.1792
28.1792
28.1792
28.1792
28.1792
28.1792
28.1792
28.1792
28.1792
28.1792
28.1792
0
0
0
0
0
0
0
0
)


39
(
0
0
0
0
0
0
0
0
0
0
0
18.308
18.308
18.308
18.308
18.308
18.308
18.308
18.308
18.308
18.308
18.308
18.308
18.308
18.308
18.308
18.308
18.308
18.308
18.308
18.308
0
0
0
0
0
0
0
0
)


39
(
0
0
0
0
0
0
0
0
0
0
0
8.87619
8.87619
8.87619
8.87619
8.87619
8.87619
8.87619
8.87619
8.87619
8.87619
8.87619
8.87619
8.87619
8.87619
8.87619
8.87619
8.87619
8.87619
8.87619
8.87619
0
0
0
0
0
0
0
0
)


39
(
0
0
0
0
0
0
0
0
0
0
0
2.05559
2.05559
2.05559
2.05559
2.05559
2.05559
2.05559
2.05559
2.05559
2.05559
2.05559
2.05559
2.05559
2.05559
2.05559
2.05559
2.05559
2.05559
2.05559
2.05559
0
0
0
0
0
0
0
0
)


39
(
0
0
0
0
0
0
0
0
0
0
0
0.0230774
0.0230774
0.0230774
0.0230774
0.0230774
0.0230774
0.0230774
0.0230774
0.0230774
0.0230774
0.0230774
0.0230774
0.0230774
0.0230774
0.0230774
0.0230774
0.0230774
0.0230774
0.0230774
0.0230774
0
0
0
0
0
0
0
0
)

39{0}
39{0}
39{0}
39{0}
39{0}
39{0}
39{0}
39{0}
39{0}
39{0}
39{0}
39{0}
39{0}
39{0}
39{0}
39{0}
39{0}
39{0}
39{0}
39{0}
39{0}
39{0}
)

End

Finalising parallel run
